
---------- Begin Simulation Statistics ----------
final_tick                               142479118000                       # Number of ticks from beginning of simulation (restored from checkpoints and never reset)
host_inst_rate                                 240302                       # Simulator instruction rate (inst/s)
host_mem_usage                                 674116                       # Number of bytes of host memory used
host_op_rate                                   280737                       # Simulator op (including micro ops) rate (op/s)
host_seconds                                   416.14                       # Real time elapsed on the host
host_tick_rate                              342380672                       # Simulator tick rate (ticks/s)
sim_freq                                 1000000000000                       # Frequency of simulated ticks
sim_insts                                   100000000                       # Number of instructions simulated
sim_ops                                     116826593                       # Number of ops (including micro ops) simulated
sim_seconds                                  0.142479                       # Number of seconds simulated
sim_ticks                                142479118000                       # Number of ticks simulated
system.cpu.committedInsts                   100000000                       # Number of instructions committed
system.cpu.committedOps                     116826593                       # Number of ops (including micro ops) committed
system.cpu.cpi                               1.424791                       # CPI: cycles per instruction
system.cpu.discardedOps                        503399                       # Number of ops (including micro ops) which were discarded before commit
system.cpu.idleCycles                         6469406                       # Total number of cycles that the object has spent stopped
system.cpu.ipc                               0.701857                       # IPC: instructions per cycle
system.cpu.numCycles                        142479118                       # number of cpu cycles simulated
system.cpu.numFetchSuspends                         0                       # Number of times Execute suspended instruction fetching
system.cpu.numWorkItemsCompleted                    0                       # number of work items this cpu completed
system.cpu.numWorkItemsStarted                      0                       # number of work items this cpu started
system.cpu.op_class_0::No_OpClass                   0      0.00%      0.00% # Class of committed instruction
system.cpu.op_class_0::IntAlu                65231396     55.84%     55.84% # Class of committed instruction
system.cpu.op_class_0::IntMult                 602374      0.52%     56.35% # Class of committed instruction
system.cpu.op_class_0::IntDiv                       0      0.00%     56.35% # Class of committed instruction
system.cpu.op_class_0::FloatAdd                     0      0.00%     56.35% # Class of committed instruction
system.cpu.op_class_0::FloatCmp                     0      0.00%     56.35% # Class of committed instruction
system.cpu.op_class_0::FloatCvt                     0      0.00%     56.35% # Class of committed instruction
system.cpu.op_class_0::FloatMult                    0      0.00%     56.35% # Class of committed instruction
system.cpu.op_class_0::FloatMultAcc                 0      0.00%     56.35% # Class of committed instruction
system.cpu.op_class_0::FloatDiv                     0      0.00%     56.35% # Class of committed instruction
system.cpu.op_class_0::FloatMisc                    0      0.00%     56.35% # Class of committed instruction
system.cpu.op_class_0::FloatSqrt                    0      0.00%     56.35% # Class of committed instruction
system.cpu.op_class_0::SimdAdd                    380      0.00%     56.35% # Class of committed instruction
system.cpu.op_class_0::SimdAddAcc                   0      0.00%     56.35% # Class of committed instruction
system.cpu.op_class_0::SimdAlu                    470      0.00%     56.35% # Class of committed instruction
system.cpu.op_class_0::SimdCmp                    382      0.00%     56.35% # Class of committed instruction
system.cpu.op_class_0::SimdCvt                      0      0.00%     56.35% # Class of committed instruction
system.cpu.op_class_0::SimdMisc                    53      0.00%     56.35% # Class of committed instruction
system.cpu.op_class_0::SimdMult                     0      0.00%     56.35% # Class of committed instruction
system.cpu.op_class_0::SimdMultAcc                  0      0.00%     56.35% # Class of committed instruction
system.cpu.op_class_0::SimdShift                    0      0.00%     56.35% # Class of committed instruction
system.cpu.op_class_0::SimdShiftAcc                 0      0.00%     56.35% # Class of committed instruction
system.cpu.op_class_0::SimdDiv                      0      0.00%     56.35% # Class of committed instruction
system.cpu.op_class_0::SimdSqrt                     0      0.00%     56.35% # Class of committed instruction
system.cpu.op_class_0::SimdFloatAdd            783705      0.67%     57.02% # Class of committed instruction
system.cpu.op_class_0::SimdFloatAlu                 0      0.00%     57.02% # Class of committed instruction
system.cpu.op_class_0::SimdFloatCmp            769156      0.66%     57.68% # Class of committed instruction
system.cpu.op_class_0::SimdFloatCvt            311548      0.27%     57.95% # Class of committed instruction
system.cpu.op_class_0::SimdFloatDiv            152211      0.13%     58.08% # Class of committed instruction
system.cpu.op_class_0::SimdFloatMisc           950762      0.81%     58.89% # Class of committed instruction
system.cpu.op_class_0::SimdFloatMult            86008      0.07%     58.97% # Class of committed instruction
system.cpu.op_class_0::SimdFloatMultAcc         12802      0.01%     58.98% # Class of committed instruction
system.cpu.op_class_0::SimdFloatSqrt                0      0.00%     58.98% # Class of committed instruction
system.cpu.op_class_0::SimdReduceAdd                0      0.00%     58.98% # Class of committed instruction
system.cpu.op_class_0::SimdReduceAlu                0      0.00%     58.98% # Class of committed instruction
system.cpu.op_class_0::SimdReduceCmp                0      0.00%     58.98% # Class of committed instruction
system.cpu.op_class_0::SimdFloatReduceAdd            0      0.00%     58.98% # Class of committed instruction
system.cpu.op_class_0::SimdFloatReduceCmp            0      0.00%     58.98% # Class of committed instruction
system.cpu.op_class_0::SimdAes                      0      0.00%     58.98% # Class of committed instruction
system.cpu.op_class_0::SimdAesMix                   0      0.00%     58.98% # Class of committed instruction
system.cpu.op_class_0::SimdSha1Hash                 0      0.00%     58.98% # Class of committed instruction
system.cpu.op_class_0::SimdSha1Hash2                0      0.00%     58.98% # Class of committed instruction
system.cpu.op_class_0::SimdSha256Hash               0      0.00%     58.98% # Class of committed instruction
system.cpu.op_class_0::SimdSha256Hash2              0      0.00%     58.98% # Class of committed instruction
system.cpu.op_class_0::SimdShaSigma2                0      0.00%     58.98% # Class of committed instruction
system.cpu.op_class_0::SimdShaSigma3                0      0.00%     58.98% # Class of committed instruction
system.cpu.op_class_0::SimdPredAlu                  0      0.00%     58.98% # Class of committed instruction
system.cpu.op_class_0::MemRead               30319972     25.95%     84.93% # Class of committed instruction
system.cpu.op_class_0::MemWrite              17605374     15.07%    100.00% # Class of committed instruction
system.cpu.op_class_0::FloatMemRead                 0      0.00%    100.00% # Class of committed instruction
system.cpu.op_class_0::FloatMemWrite                0      0.00%    100.00% # Class of committed instruction
system.cpu.op_class_0::IprAccess                    0      0.00%    100.00% # Class of committed instruction
system.cpu.op_class_0::InstPrefetch                 0      0.00%    100.00% # Class of committed instruction
system.cpu.op_class_0::total                116826593                       # Class of committed instruction
system.cpu.tickCycles                       136009712                       # Number of cycles that the object actually ticked
system.cpu.workload.numSyscalls                    33                       # Number of system calls
system.membus.snoop_filter.hit_multi_requests            0                       # Number of requests hitting in the snoop filter with multiple (>1) holders of the requested data.
system.membus.snoop_filter.hit_multi_snoops            0                       # Number of snoops hitting in the snoop filter with multiple (>1) holders of the requested data.
system.membus.snoop_filter.hit_single_requests            0                       # Number of requests hitting in the snoop filter with a single holder of the requested data.
system.membus.snoop_filter.hit_single_snoops            0                       # Number of snoops hitting in the snoop filter with a single holder of the requested data.
system.membus.snoop_filter.tot_requests         10663                       # Total number of requests made to the snoop filter.
system.membus.snoop_filter.tot_snoops               0                       # Total number of snoops made to the snoop filter.
system.tol2bus.snoop_filter.hit_multi_requests         1748                       # Number of requests hitting in the snoop filter with multiple (>1) holders of the requested data.
system.tol2bus.snoop_filter.hit_multi_snoops            0                       # Number of snoops hitting in the snoop filter with multiple (>1) holders of the requested data.
system.tol2bus.snoop_filter.hit_single_requests       327080                       # Number of requests hitting in the snoop filter with a single holder of the requested data.
system.tol2bus.snoop_filter.hit_single_snoops            0                       # Number of snoops hitting in the snoop filter with a single holder of the requested data.
system.tol2bus.snoop_filter.tot_requests       657099                       # Total number of requests made to the snoop filter.
system.tol2bus.snoop_filter.tot_snoops              0                       # Total number of snoops made to the snoop filter.
system.clk_domain.clock                          1000                       # Clock period in ticks
system.cpu.branchPred.lookups                 6103400                       # Number of BP lookups
system.cpu.branchPred.condPredicted           5265622                       # Number of conditional branches predicted
system.cpu.branchPred.condIncorrect            188553                       # Number of conditional branches incorrect
system.cpu.branchPred.BTBLookups              3812590                       # Number of BTB lookups
system.cpu.branchPred.BTBHits                 3808202                       # Number of BTB hits
system.cpu.branchPred.BTBHitPct             99.884908                       # BTB Hit Percentage
system.cpu.branchPred.RASUsed                  257289                       # Number of times the RAS was used to get a target.
system.cpu.branchPred.RASIncorrect                  1                       # Number of incorrect RAS predictions.
system.cpu.branchPred.indirectLookups          154306                       # Number of indirect predictor lookups.
system.cpu.branchPred.indirectHits                237                       # Number of indirect target hits.
system.cpu.branchPred.indirectMisses           154069                       # Number of indirect misses.
system.cpu.branchPred.indirectMispredicted          199                       # Number of mispredicted indirect branches.
system.cpu.dcache.demand_hits::.cpu.data     47295065                       # number of demand (read+write) hits
system.cpu.dcache.demand_hits::total         47295065                       # number of demand (read+write) hits
system.cpu.dcache.overall_hits::.cpu.data     47319822                       # number of overall hits
system.cpu.dcache.overall_hits::total        47319822                       # number of overall hits
system.cpu.dcache.demand_misses::.cpu.data       563538                       # number of demand (read+write) misses
system.cpu.dcache.demand_misses::total         563538                       # number of demand (read+write) misses
system.cpu.dcache.overall_misses::.cpu.data       563997                       # number of overall misses
system.cpu.dcache.overall_misses::total        563997                       # number of overall misses
system.cpu.dcache.demand_miss_latency::.cpu.data  13039962000                       # number of demand (read+write) miss cycles
system.cpu.dcache.demand_miss_latency::total  13039962000                       # number of demand (read+write) miss cycles
system.cpu.dcache.overall_miss_latency::.cpu.data  13039962000                       # number of overall miss cycles
system.cpu.dcache.overall_miss_latency::total  13039962000                       # number of overall miss cycles
system.cpu.dcache.demand_accesses::.cpu.data     47858603                       # number of demand (read+write) accesses
system.cpu.dcache.demand_accesses::total     47858603                       # number of demand (read+write) accesses
system.cpu.dcache.overall_accesses::.cpu.data     47883819                       # number of overall (read+write) accesses
system.cpu.dcache.overall_accesses::total     47883819                       # number of overall (read+write) accesses
system.cpu.dcache.demand_miss_rate::.cpu.data     0.011775                       # miss rate for demand accesses
system.cpu.dcache.demand_miss_rate::total     0.011775                       # miss rate for demand accesses
system.cpu.dcache.overall_miss_rate::.cpu.data     0.011778                       # miss rate for overall accesses
system.cpu.dcache.overall_miss_rate::total     0.011778                       # miss rate for overall accesses
system.cpu.dcache.demand_avg_miss_latency::.cpu.data 23139.454660                       # average overall miss latency
system.cpu.dcache.demand_avg_miss_latency::total 23139.454660                       # average overall miss latency
system.cpu.dcache.overall_avg_miss_latency::.cpu.data 23120.622982                       # average overall miss latency
system.cpu.dcache.overall_avg_miss_latency::total 23120.622982                       # average overall miss latency
system.cpu.dcache.blocked_cycles::no_mshrs          145                       # number of cycles access was blocked
system.cpu.dcache.blocked_cycles::no_targets            0                       # number of cycles access was blocked
system.cpu.dcache.blocked::no_mshrs                 3                       # number of cycles access was blocked
system.cpu.dcache.blocked::no_targets               0                       # number of cycles access was blocked
system.cpu.dcache.avg_blocked_cycles::no_mshrs    48.333333                       # average number of cycles each access was blocked
system.cpu.dcache.avg_blocked_cycles::no_targets          nan                       # average number of cycles each access was blocked
system.cpu.dcache.writebacks::.writebacks       319453                       # number of writebacks
system.cpu.dcache.writebacks::total            319453                       # number of writebacks
system.cpu.dcache.demand_mshr_hits::.cpu.data       237496                       # number of demand (read+write) MSHR hits
system.cpu.dcache.demand_mshr_hits::total       237496                       # number of demand (read+write) MSHR hits
system.cpu.dcache.overall_mshr_hits::.cpu.data       237496                       # number of overall MSHR hits
system.cpu.dcache.overall_mshr_hits::total       237496                       # number of overall MSHR hits
system.cpu.dcache.demand_mshr_misses::.cpu.data       326042                       # number of demand (read+write) MSHR misses
system.cpu.dcache.demand_mshr_misses::total       326042                       # number of demand (read+write) MSHR misses
system.cpu.dcache.overall_mshr_misses::.cpu.data       326500                       # number of overall MSHR misses
system.cpu.dcache.overall_mshr_misses::total       326500                       # number of overall MSHR misses
system.cpu.dcache.demand_mshr_miss_latency::.cpu.data   8494675000                       # number of demand (read+write) MSHR miss cycles
system.cpu.dcache.demand_mshr_miss_latency::total   8494675000                       # number of demand (read+write) MSHR miss cycles
system.cpu.dcache.overall_mshr_miss_latency::.cpu.data   8514117000                       # number of overall MSHR miss cycles
system.cpu.dcache.overall_mshr_miss_latency::total   8514117000                       # number of overall MSHR miss cycles
system.cpu.dcache.demand_mshr_miss_rate::.cpu.data     0.006813                       # mshr miss rate for demand accesses
system.cpu.dcache.demand_mshr_miss_rate::total     0.006813                       # mshr miss rate for demand accesses
system.cpu.dcache.overall_mshr_miss_rate::.cpu.data     0.006819                       # mshr miss rate for overall accesses
system.cpu.dcache.overall_mshr_miss_rate::total     0.006819                       # mshr miss rate for overall accesses
system.cpu.dcache.demand_avg_mshr_miss_latency::.cpu.data 26053.928635                       # average overall mshr miss latency
system.cpu.dcache.demand_avg_mshr_miss_latency::total 26053.928635                       # average overall mshr miss latency
system.cpu.dcache.overall_avg_mshr_miss_latency::.cpu.data 26076.928025                       # average overall mshr miss latency
system.cpu.dcache.overall_avg_mshr_miss_latency::total 26076.928025                       # average overall mshr miss latency
system.cpu.dcache.replacements                 324453                       # number of replacements
system.cpu.dcache.ReadReq_hits::.cpu.data     30331255                       # number of ReadReq hits
system.cpu.dcache.ReadReq_hits::total        30331255                       # number of ReadReq hits
system.cpu.dcache.ReadReq_misses::.cpu.data        53077                       # number of ReadReq misses
system.cpu.dcache.ReadReq_misses::total         53077                       # number of ReadReq misses
system.cpu.dcache.ReadReq_miss_latency::.cpu.data   1513155000                       # number of ReadReq miss cycles
system.cpu.dcache.ReadReq_miss_latency::total   1513155000                       # number of ReadReq miss cycles
system.cpu.dcache.ReadReq_accesses::.cpu.data     30384332                       # number of ReadReq accesses(hits+misses)
system.cpu.dcache.ReadReq_accesses::total     30384332                       # number of ReadReq accesses(hits+misses)
system.cpu.dcache.ReadReq_miss_rate::.cpu.data     0.001747                       # miss rate for ReadReq accesses
system.cpu.dcache.ReadReq_miss_rate::total     0.001747                       # miss rate for ReadReq accesses
system.cpu.dcache.ReadReq_avg_miss_latency::.cpu.data 28508.676074                       # average ReadReq miss latency
system.cpu.dcache.ReadReq_avg_miss_latency::total 28508.676074                       # average ReadReq miss latency
system.cpu.dcache.ReadReq_mshr_hits::.cpu.data         1039                       # number of ReadReq MSHR hits
system.cpu.dcache.ReadReq_mshr_hits::total         1039                       # number of ReadReq MSHR hits
system.cpu.dcache.ReadReq_mshr_misses::.cpu.data        52038                       # number of ReadReq MSHR misses
system.cpu.dcache.ReadReq_mshr_misses::total        52038                       # number of ReadReq MSHR misses
system.cpu.dcache.ReadReq_mshr_miss_latency::.cpu.data   1370128000                       # number of ReadReq MSHR miss cycles
system.cpu.dcache.ReadReq_mshr_miss_latency::total   1370128000                       # number of ReadReq MSHR miss cycles
system.cpu.dcache.ReadReq_mshr_miss_rate::.cpu.data     0.001713                       # mshr miss rate for ReadReq accesses
system.cpu.dcache.ReadReq_mshr_miss_rate::total     0.001713                       # mshr miss rate for ReadReq accesses
system.cpu.dcache.ReadReq_avg_mshr_miss_latency::.cpu.data 26329.374688                       # average ReadReq mshr miss latency
system.cpu.dcache.ReadReq_avg_mshr_miss_latency::total 26329.374688                       # average ReadReq mshr miss latency
system.cpu.dcache.WriteReq_hits::.cpu.data     16963810                       # number of WriteReq hits
system.cpu.dcache.WriteReq_hits::total       16963810                       # number of WriteReq hits
system.cpu.dcache.WriteReq_misses::.cpu.data       510461                       # number of WriteReq misses
system.cpu.dcache.WriteReq_misses::total       510461                       # number of WriteReq misses
system.cpu.dcache.WriteReq_miss_latency::.cpu.data  11526807000                       # number of WriteReq miss cycles
system.cpu.dcache.WriteReq_miss_latency::total  11526807000                       # number of WriteReq miss cycles
system.cpu.dcache.WriteReq_accesses::.cpu.data     17474271                       # number of WriteReq accesses(hits+misses)
system.cpu.dcache.WriteReq_accesses::total     17474271                       # number of WriteReq accesses(hits+misses)
system.cpu.dcache.WriteReq_miss_rate::.cpu.data     0.029212                       # miss rate for WriteReq accesses
system.cpu.dcache.WriteReq_miss_rate::total     0.029212                       # miss rate for WriteReq accesses
system.cpu.dcache.WriteReq_avg_miss_latency::.cpu.data 22581.170746                       # average WriteReq miss latency
system.cpu.dcache.WriteReq_avg_miss_latency::total 22581.170746                       # average WriteReq miss latency
system.cpu.dcache.WriteReq_mshr_hits::.cpu.data       236457                       # number of WriteReq MSHR hits
system.cpu.dcache.WriteReq_mshr_hits::total       236457                       # number of WriteReq MSHR hits
system.cpu.dcache.WriteReq_mshr_misses::.cpu.data       274004                       # number of WriteReq MSHR misses
system.cpu.dcache.WriteReq_mshr_misses::total       274004                       # number of WriteReq MSHR misses
system.cpu.dcache.WriteReq_mshr_miss_latency::.cpu.data   7124547000                       # number of WriteReq MSHR miss cycles
system.cpu.dcache.WriteReq_mshr_miss_latency::total   7124547000                       # number of WriteReq MSHR miss cycles
system.cpu.dcache.WriteReq_mshr_miss_rate::.cpu.data     0.015680                       # mshr miss rate for WriteReq accesses
system.cpu.dcache.WriteReq_mshr_miss_rate::total     0.015680                       # mshr miss rate for WriteReq accesses
system.cpu.dcache.WriteReq_avg_mshr_miss_latency::.cpu.data 26001.616765                       # average WriteReq mshr miss latency
system.cpu.dcache.WriteReq_avg_mshr_miss_latency::total 26001.616765                       # average WriteReq mshr miss latency
system.cpu.dcache.SoftPFReq_hits::.cpu.data        24757                       # number of SoftPFReq hits
system.cpu.dcache.SoftPFReq_hits::total         24757                       # number of SoftPFReq hits
system.cpu.dcache.SoftPFReq_misses::.cpu.data          459                       # number of SoftPFReq misses
system.cpu.dcache.SoftPFReq_misses::total          459                       # number of SoftPFReq misses
system.cpu.dcache.SoftPFReq_accesses::.cpu.data        25216                       # number of SoftPFReq accesses(hits+misses)
system.cpu.dcache.SoftPFReq_accesses::total        25216                       # number of SoftPFReq accesses(hits+misses)
system.cpu.dcache.SoftPFReq_miss_rate::.cpu.data     0.018203                       # miss rate for SoftPFReq accesses
system.cpu.dcache.SoftPFReq_miss_rate::total     0.018203                       # miss rate for SoftPFReq accesses
system.cpu.dcache.SoftPFReq_mshr_misses::.cpu.data          458                       # number of SoftPFReq MSHR misses
system.cpu.dcache.SoftPFReq_mshr_misses::total          458                       # number of SoftPFReq MSHR misses
system.cpu.dcache.SoftPFReq_mshr_miss_latency::.cpu.data     19442000                       # number of SoftPFReq MSHR miss cycles
system.cpu.dcache.SoftPFReq_mshr_miss_latency::total     19442000                       # number of SoftPFReq MSHR miss cycles
system.cpu.dcache.SoftPFReq_mshr_miss_rate::.cpu.data     0.018163                       # mshr miss rate for SoftPFReq accesses
system.cpu.dcache.SoftPFReq_mshr_miss_rate::total     0.018163                       # mshr miss rate for SoftPFReq accesses
system.cpu.dcache.SoftPFReq_avg_mshr_miss_latency::.cpu.data 42449.781659                       # average SoftPFReq mshr miss latency
system.cpu.dcache.SoftPFReq_avg_mshr_miss_latency::total 42449.781659                       # average SoftPFReq mshr miss latency
system.cpu.dcache.LoadLockedReq_hits::.cpu.data          165                       # number of LoadLockedReq hits
system.cpu.dcache.LoadLockedReq_hits::total          165                       # number of LoadLockedReq hits
system.cpu.dcache.LoadLockedReq_misses::.cpu.data            1                       # number of LoadLockedReq misses
system.cpu.dcache.LoadLockedReq_misses::total            1                       # number of LoadLockedReq misses
system.cpu.dcache.LoadLockedReq_miss_latency::.cpu.data       109000                       # number of LoadLockedReq miss cycles
system.cpu.dcache.LoadLockedReq_miss_latency::total       109000                       # number of LoadLockedReq miss cycles
system.cpu.dcache.LoadLockedReq_accesses::.cpu.data          166                       # number of LoadLockedReq accesses(hits+misses)
system.cpu.dcache.LoadLockedReq_accesses::total          166                       # number of LoadLockedReq accesses(hits+misses)
system.cpu.dcache.LoadLockedReq_miss_rate::.cpu.data     0.006024                       # miss rate for LoadLockedReq accesses
system.cpu.dcache.LoadLockedReq_miss_rate::total     0.006024                       # miss rate for LoadLockedReq accesses
system.cpu.dcache.LoadLockedReq_avg_miss_latency::.cpu.data       109000                       # average LoadLockedReq miss latency
system.cpu.dcache.LoadLockedReq_avg_miss_latency::total       109000                       # average LoadLockedReq miss latency
system.cpu.dcache.LoadLockedReq_mshr_misses::.cpu.data            1                       # number of LoadLockedReq MSHR misses
system.cpu.dcache.LoadLockedReq_mshr_misses::total            1                       # number of LoadLockedReq MSHR misses
system.cpu.dcache.LoadLockedReq_mshr_miss_latency::.cpu.data       107000                       # number of LoadLockedReq MSHR miss cycles
system.cpu.dcache.LoadLockedReq_mshr_miss_latency::total       107000                       # number of LoadLockedReq MSHR miss cycles
system.cpu.dcache.LoadLockedReq_mshr_miss_rate::.cpu.data     0.006024                       # mshr miss rate for LoadLockedReq accesses
system.cpu.dcache.LoadLockedReq_mshr_miss_rate::total     0.006024                       # mshr miss rate for LoadLockedReq accesses
system.cpu.dcache.LoadLockedReq_avg_mshr_miss_latency::.cpu.data       107000                       # average LoadLockedReq mshr miss latency
system.cpu.dcache.LoadLockedReq_avg_mshr_miss_latency::total       107000                       # average LoadLockedReq mshr miss latency
system.cpu.dcache.StoreCondReq_hits::.cpu.data          166                       # number of StoreCondReq hits
system.cpu.dcache.StoreCondReq_hits::total          166                       # number of StoreCondReq hits
system.cpu.dcache.StoreCondReq_accesses::.cpu.data          166                       # number of StoreCondReq accesses(hits+misses)
system.cpu.dcache.StoreCondReq_accesses::total          166                       # number of StoreCondReq accesses(hits+misses)
system.cpu.dcache.power_state.pwrStateResidencyTicks::UNDEFINED 142479118000                       # Cumulative time (in ticks) in various power states
system.cpu.dcache.tags.tagsinuse          2034.624133                       # Cycle average of tags in use
system.cpu.dcache.tags.total_refs            47646654                       # Total number of references to valid blocks.
system.cpu.dcache.tags.sampled_refs            326501                       # Sample count of references to valid blocks.
system.cpu.dcache.tags.avg_refs            145.931112                       # Average number of references to valid blocks.
system.cpu.dcache.tags.warmup_cycle            223000                       # Cycle when the warmup percentage was hit.
system.cpu.dcache.tags.occ_blocks::.cpu.data  2034.624133                       # Average occupied blocks per requestor
system.cpu.dcache.tags.occ_percent::.cpu.data     0.993469                       # Average percentage of cache occupancy
system.cpu.dcache.tags.occ_percent::total     0.993469                       # Average percentage of cache occupancy
system.cpu.dcache.tags.occ_task_id_blocks::1024         2048                       # Occupied blocks per task id
system.cpu.dcache.tags.age_task_id_blocks_1024::0           13                       # Occupied blocks per task id
system.cpu.dcache.tags.age_task_id_blocks_1024::1          118                       # Occupied blocks per task id
system.cpu.dcache.tags.age_task_id_blocks_1024::2          791                       # Occupied blocks per task id
system.cpu.dcache.tags.age_task_id_blocks_1024::3         1094                       # Occupied blocks per task id
system.cpu.dcache.tags.age_task_id_blocks_1024::4           32                       # Occupied blocks per task id
system.cpu.dcache.tags.occ_task_id_percent::1024            1                       # Percentage of cache occupancy per task id
system.cpu.dcache.tags.tag_accesses          96094803                       # Number of tag accesses
system.cpu.dcache.tags.data_accesses         96094803                       # Number of data accesses
system.cpu.dcache.tags.power_state.pwrStateResidencyTicks::UNDEFINED 142479118000                       # Cumulative time (in ticks) in various power states
system.cpu.dtb.instHits                             0                       # ITB inst hits
system.cpu.dtb.instMisses                           0                       # ITB inst misses
system.cpu.dtb.readHits                             0                       # DTB read hits
system.cpu.dtb.readMisses                           0                       # DTB read misses
system.cpu.dtb.writeHits                            0                       # DTB write hits
system.cpu.dtb.writeMisses                          0                       # DTB write misses
system.cpu.dtb.inserts                              0                       # Number of times an entry is inserted into the TLB
system.cpu.dtb.flushTlb                             0                       # Number of times complete TLB was flushed
system.cpu.dtb.flushTlbMva                          0                       # Number of times TLB was flushed by MVA
system.cpu.dtb.flushTlbMvaAsid                      0                       # Number of times TLB was flushed by MVA & ASID
system.cpu.dtb.flushTlbAsid                         0                       # Number of times TLB was flushed by ASID
system.cpu.dtb.flushedEntries                       0                       # Number of entries that have been flushed from TLB
system.cpu.dtb.alignFaults                          0                       # Number of TLB faults due to alignment restrictions
system.cpu.dtb.prefetchFaults                       0                       # Number of TLB faults due to prefetch
system.cpu.dtb.domainFaults                         0                       # Number of TLB faults due to domain restrictions
system.cpu.dtb.permsFaults                          0                       # Number of TLB faults due to permissions restrictions
system.cpu.dtb.readAccesses                         0                       # DTB read accesses
system.cpu.dtb.writeAccesses                        0                       # DTB write accesses
system.cpu.dtb.instAccesses                         0                       # ITB inst accesses
system.cpu.dtb.hits                                 0                       # Total TLB (inst and data) hits
system.cpu.dtb.misses                               0                       # Total TLB (inst and data) misses
system.cpu.dtb.accesses                             0                       # Total TLB (inst and data) accesses
system.cpu.dtb.stage2_mmu.stage2_tlb.instHits            0                       # ITB inst hits
system.cpu.dtb.stage2_mmu.stage2_tlb.instMisses            0                       # ITB inst misses
system.cpu.dtb.stage2_mmu.stage2_tlb.readHits            0                       # DTB read hits
system.cpu.dtb.stage2_mmu.stage2_tlb.readMisses            0                       # DTB read misses
system.cpu.dtb.stage2_mmu.stage2_tlb.writeHits            0                       # DTB write hits
system.cpu.dtb.stage2_mmu.stage2_tlb.writeMisses            0                       # DTB write misses
system.cpu.dtb.stage2_mmu.stage2_tlb.inserts            0                       # Number of times an entry is inserted into the TLB
system.cpu.dtb.stage2_mmu.stage2_tlb.flushTlb            0                       # Number of times complete TLB was flushed
system.cpu.dtb.stage2_mmu.stage2_tlb.flushTlbMva            0                       # Number of times TLB was flushed by MVA
system.cpu.dtb.stage2_mmu.stage2_tlb.flushTlbMvaAsid            0                       # Number of times TLB was flushed by MVA & ASID
system.cpu.dtb.stage2_mmu.stage2_tlb.flushTlbAsid            0                       # Number of times TLB was flushed by ASID
system.cpu.dtb.stage2_mmu.stage2_tlb.flushedEntries            0                       # Number of entries that have been flushed from TLB
system.cpu.dtb.stage2_mmu.stage2_tlb.alignFaults            0                       # Number of TLB faults due to alignment restrictions
system.cpu.dtb.stage2_mmu.stage2_tlb.prefetchFaults            0                       # Number of TLB faults due to prefetch
system.cpu.dtb.stage2_mmu.stage2_tlb.domainFaults            0                       # Number of TLB faults due to domain restrictions
system.cpu.dtb.stage2_mmu.stage2_tlb.permsFaults            0                       # Number of TLB faults due to permissions restrictions
system.cpu.dtb.stage2_mmu.stage2_tlb.readAccesses            0                       # DTB read accesses
system.cpu.dtb.stage2_mmu.stage2_tlb.writeAccesses            0                       # DTB write accesses
system.cpu.dtb.stage2_mmu.stage2_tlb.instAccesses            0                       # ITB inst accesses
system.cpu.dtb.stage2_mmu.stage2_tlb.hits            0                       # Total TLB (inst and data) hits
system.cpu.dtb.stage2_mmu.stage2_tlb.misses            0                       # Total TLB (inst and data) misses
system.cpu.dtb.stage2_mmu.stage2_tlb.accesses            0                       # Total TLB (inst and data) accesses
system.cpu.dtb.stage2_mmu.stage2_tlb.walker.walks            0                       # Table walker walks requested
system.cpu.dtb.stage2_mmu.stage2_tlb.walker.requestOrigin_Requested::Data            0                       # Table walker requests started/completed, data/inst
system.cpu.dtb.stage2_mmu.stage2_tlb.walker.requestOrigin_Requested::Inst            0                       # Table walker requests started/completed, data/inst
system.cpu.dtb.stage2_mmu.stage2_tlb.walker.requestOrigin_Requested::total            0                       # Table walker requests started/completed, data/inst
system.cpu.dtb.stage2_mmu.stage2_tlb.walker.requestOrigin_Completed::Data            0                       # Table walker requests started/completed, data/inst
system.cpu.dtb.stage2_mmu.stage2_tlb.walker.requestOrigin_Completed::Inst            0                       # Table walker requests started/completed, data/inst
system.cpu.dtb.stage2_mmu.stage2_tlb.walker.requestOrigin_Completed::total            0                       # Table walker requests started/completed, data/inst
system.cpu.dtb.stage2_mmu.stage2_tlb.walker.requestOrigin::total            0                       # Table walker requests started/completed, data/inst
system.cpu.dtb.stage2_mmu.stage2_tlb.walker.power_state.pwrStateResidencyTicks::UNDEFINED 142479118000                       # Cumulative time (in ticks) in various power states
system.cpu.dtb.walker.walks                         0                       # Table walker walks requested
system.cpu.dtb.walker.requestOrigin_Requested::Data            0                       # Table walker requests started/completed, data/inst
system.cpu.dtb.walker.requestOrigin_Requested::Inst            0                       # Table walker requests started/completed, data/inst
system.cpu.dtb.walker.requestOrigin_Requested::total            0                       # Table walker requests started/completed, data/inst
system.cpu.dtb.walker.requestOrigin_Completed::Data            0                       # Table walker requests started/completed, data/inst
system.cpu.dtb.walker.requestOrigin_Completed::Inst            0                       # Table walker requests started/completed, data/inst
system.cpu.dtb.walker.requestOrigin_Completed::total            0                       # Table walker requests started/completed, data/inst
system.cpu.dtb.walker.requestOrigin::total            0                       # Table walker requests started/completed, data/inst
system.cpu.dtb.walker.power_state.pwrStateResidencyTicks::UNDEFINED 142479118000                       # Cumulative time (in ticks) in various power states
system.cpu.fetch2.intInstructions            37752125                       # Number of integer instructions successfully decoded
system.cpu.fetch2.fpInstructions                    0                       # Number of floating point instructions successfully decoded
system.cpu.fetch2.vecInstructions                   0                       # Number of SIMD instructions successfully decoded
system.cpu.fetch2.loadInstructions           17244488                       # Number of memory load instructions successfully decoded
system.cpu.fetch2.storeInstructions          14150297                       # Number of memory store instructions successfully decoded
system.cpu.fetch2.amoInstructions                   0                       # Number of memory atomic instructions successfully decoded
system.cpu.icache.demand_hits::.cpu.inst     18641079                       # number of demand (read+write) hits
system.cpu.icache.demand_hits::total         18641079                       # number of demand (read+write) hits
system.cpu.icache.overall_hits::.cpu.inst     18641079                       # number of overall hits
system.cpu.icache.overall_hits::total        18641079                       # number of overall hits
system.cpu.icache.demand_misses::.cpu.inst         3526                       # number of demand (read+write) misses
system.cpu.icache.demand_misses::total           3526                       # number of demand (read+write) misses
system.cpu.icache.overall_misses::.cpu.inst         3526                       # number of overall misses
system.cpu.icache.overall_misses::total          3526                       # number of overall misses
system.cpu.icache.demand_miss_latency::.cpu.inst    237907000                       # number of demand (read+write) miss cycles
system.cpu.icache.demand_miss_latency::total    237907000                       # number of demand (read+write) miss cycles
system.cpu.icache.overall_miss_latency::.cpu.inst    237907000                       # number of overall miss cycles
system.cpu.icache.overall_miss_latency::total    237907000                       # number of overall miss cycles
system.cpu.icache.demand_accesses::.cpu.inst     18644605                       # number of demand (read+write) accesses
system.cpu.icache.demand_accesses::total     18644605                       # number of demand (read+write) accesses
system.cpu.icache.overall_accesses::.cpu.inst     18644605                       # number of overall (read+write) accesses
system.cpu.icache.overall_accesses::total     18644605                       # number of overall (read+write) accesses
system.cpu.icache.demand_miss_rate::.cpu.inst     0.000189                       # miss rate for demand accesses
system.cpu.icache.demand_miss_rate::total     0.000189                       # miss rate for demand accesses
system.cpu.icache.overall_miss_rate::.cpu.inst     0.000189                       # miss rate for overall accesses
system.cpu.icache.overall_miss_rate::total     0.000189                       # miss rate for overall accesses
system.cpu.icache.demand_avg_miss_latency::.cpu.inst 67472.206466                       # average overall miss latency
system.cpu.icache.demand_avg_miss_latency::total 67472.206466                       # average overall miss latency
system.cpu.icache.overall_avg_miss_latency::.cpu.inst 67472.206466                       # average overall miss latency
system.cpu.icache.overall_avg_miss_latency::total 67472.206466                       # average overall miss latency
system.cpu.icache.blocked_cycles::no_mshrs            0                       # number of cycles access was blocked
system.cpu.icache.blocked_cycles::no_targets            0                       # number of cycles access was blocked
system.cpu.icache.blocked::no_mshrs                 0                       # number of cycles access was blocked
system.cpu.icache.blocked::no_targets               0                       # number of cycles access was blocked
system.cpu.icache.avg_blocked_cycles::no_mshrs          nan                       # average number of cycles each access was blocked
system.cpu.icache.avg_blocked_cycles::no_targets          nan                       # average number of cycles each access was blocked
system.cpu.icache.writebacks::.writebacks         2619                       # number of writebacks
system.cpu.icache.writebacks::total              2619                       # number of writebacks
system.cpu.icache.demand_mshr_misses::.cpu.inst         3526                       # number of demand (read+write) MSHR misses
system.cpu.icache.demand_mshr_misses::total         3526                       # number of demand (read+write) MSHR misses
system.cpu.icache.overall_mshr_misses::.cpu.inst         3526                       # number of overall MSHR misses
system.cpu.icache.overall_mshr_misses::total         3526                       # number of overall MSHR misses
system.cpu.icache.demand_mshr_miss_latency::.cpu.inst    230855000                       # number of demand (read+write) MSHR miss cycles
system.cpu.icache.demand_mshr_miss_latency::total    230855000                       # number of demand (read+write) MSHR miss cycles
system.cpu.icache.overall_mshr_miss_latency::.cpu.inst    230855000                       # number of overall MSHR miss cycles
system.cpu.icache.overall_mshr_miss_latency::total    230855000                       # number of overall MSHR miss cycles
system.cpu.icache.demand_mshr_miss_rate::.cpu.inst     0.000189                       # mshr miss rate for demand accesses
system.cpu.icache.demand_mshr_miss_rate::total     0.000189                       # mshr miss rate for demand accesses
system.cpu.icache.overall_mshr_miss_rate::.cpu.inst     0.000189                       # mshr miss rate for overall accesses
system.cpu.icache.overall_mshr_miss_rate::total     0.000189                       # mshr miss rate for overall accesses
system.cpu.icache.demand_avg_mshr_miss_latency::.cpu.inst 65472.206466                       # average overall mshr miss latency
system.cpu.icache.demand_avg_mshr_miss_latency::total 65472.206466                       # average overall mshr miss latency
system.cpu.icache.overall_avg_mshr_miss_latency::.cpu.inst 65472.206466                       # average overall mshr miss latency
system.cpu.icache.overall_avg_mshr_miss_latency::total 65472.206466                       # average overall mshr miss latency
system.cpu.icache.replacements                   2619                       # number of replacements
system.cpu.icache.ReadReq_hits::.cpu.inst     18641079                       # number of ReadReq hits
system.cpu.icache.ReadReq_hits::total        18641079                       # number of ReadReq hits
system.cpu.icache.ReadReq_misses::.cpu.inst         3526                       # number of ReadReq misses
system.cpu.icache.ReadReq_misses::total          3526                       # number of ReadReq misses
system.cpu.icache.ReadReq_miss_latency::.cpu.inst    237907000                       # number of ReadReq miss cycles
system.cpu.icache.ReadReq_miss_latency::total    237907000                       # number of ReadReq miss cycles
system.cpu.icache.ReadReq_accesses::.cpu.inst     18644605                       # number of ReadReq accesses(hits+misses)
system.cpu.icache.ReadReq_accesses::total     18644605                       # number of ReadReq accesses(hits+misses)
system.cpu.icache.ReadReq_miss_rate::.cpu.inst     0.000189                       # miss rate for ReadReq accesses
system.cpu.icache.ReadReq_miss_rate::total     0.000189                       # miss rate for ReadReq accesses
system.cpu.icache.ReadReq_avg_miss_latency::.cpu.inst 67472.206466                       # average ReadReq miss latency
system.cpu.icache.ReadReq_avg_miss_latency::total 67472.206466                       # average ReadReq miss latency
system.cpu.icache.ReadReq_mshr_misses::.cpu.inst         3526                       # number of ReadReq MSHR misses
system.cpu.icache.ReadReq_mshr_misses::total         3526                       # number of ReadReq MSHR misses
system.cpu.icache.ReadReq_mshr_miss_latency::.cpu.inst    230855000                       # number of ReadReq MSHR miss cycles
system.cpu.icache.ReadReq_mshr_miss_latency::total    230855000                       # number of ReadReq MSHR miss cycles
system.cpu.icache.ReadReq_mshr_miss_rate::.cpu.inst     0.000189                       # mshr miss rate for ReadReq accesses
system.cpu.icache.ReadReq_mshr_miss_rate::total     0.000189                       # mshr miss rate for ReadReq accesses
system.cpu.icache.ReadReq_avg_mshr_miss_latency::.cpu.inst 65472.206466                       # average ReadReq mshr miss latency
system.cpu.icache.ReadReq_avg_mshr_miss_latency::total 65472.206466                       # average ReadReq mshr miss latency
system.cpu.icache.power_state.pwrStateResidencyTicks::UNDEFINED 142479118000                       # Cumulative time (in ticks) in various power states
system.cpu.icache.tags.tagsinuse           906.116546                       # Cycle average of tags in use
system.cpu.icache.tags.total_refs            18644605                       # Total number of references to valid blocks.
system.cpu.icache.tags.sampled_refs              3526                       # Sample count of references to valid blocks.
system.cpu.icache.tags.avg_refs           5287.749575                       # Average number of references to valid blocks.
system.cpu.icache.tags.warmup_cycle            108000                       # Cycle when the warmup percentage was hit.
system.cpu.icache.tags.occ_blocks::.cpu.inst   906.116546                       # Average occupied blocks per requestor
system.cpu.icache.tags.occ_percent::.cpu.inst     0.884879                       # Average percentage of cache occupancy
system.cpu.icache.tags.occ_percent::total     0.884879                       # Average percentage of cache occupancy
system.cpu.icache.tags.occ_task_id_blocks::1024          907                       # Occupied blocks per task id
system.cpu.icache.tags.age_task_id_blocks_1024::3           14                       # Occupied blocks per task id
system.cpu.icache.tags.age_task_id_blocks_1024::4          893                       # Occupied blocks per task id
system.cpu.icache.tags.occ_task_id_percent::1024     0.885742                       # Percentage of cache occupancy per task id
system.cpu.icache.tags.tag_accesses          37292736                       # Number of tag accesses
system.cpu.icache.tags.data_accesses         37292736                       # Number of data accesses
system.cpu.icache.tags.power_state.pwrStateResidencyTicks::UNDEFINED 142479118000                       # Cumulative time (in ticks) in various power states
system.cpu.itb.instHits                             0                       # ITB inst hits
system.cpu.itb.instMisses                           0                       # ITB inst misses
system.cpu.itb.readHits                             0                       # DTB read hits
system.cpu.itb.readMisses                           0                       # DTB read misses
system.cpu.itb.writeHits                            0                       # DTB write hits
system.cpu.itb.writeMisses                          0                       # DTB write misses
system.cpu.itb.inserts                              0                       # Number of times an entry is inserted into the TLB
system.cpu.itb.flushTlb                             0                       # Number of times complete TLB was flushed
system.cpu.itb.flushTlbMva                          0                       # Number of times TLB was flushed by MVA
system.cpu.itb.flushTlbMvaAsid                      0                       # Number of times TLB was flushed by MVA & ASID
system.cpu.itb.flushTlbAsid                         0                       # Number of times TLB was flushed by ASID
system.cpu.itb.flushedEntries                       0                       # Number of entries that have been flushed from TLB
system.cpu.itb.alignFaults                          0                       # Number of TLB faults due to alignment restrictions
system.cpu.itb.prefetchFaults                       0                       # Number of TLB faults due to prefetch
system.cpu.itb.domainFaults                         0                       # Number of TLB faults due to domain restrictions
system.cpu.itb.permsFaults                          0                       # Number of TLB faults due to permissions restrictions
system.cpu.itb.readAccesses                         0                       # DTB read accesses
system.cpu.itb.writeAccesses                        0                       # DTB write accesses
system.cpu.itb.instAccesses                         0                       # ITB inst accesses
system.cpu.itb.hits                                 0                       # Total TLB (inst and data) hits
system.cpu.itb.misses                               0                       # Total TLB (inst and data) misses
system.cpu.itb.accesses                             0                       # Total TLB (inst and data) accesses
system.cpu.itb.stage2_mmu.stage2_tlb.instHits            0                       # ITB inst hits
system.cpu.itb.stage2_mmu.stage2_tlb.instMisses            0                       # ITB inst misses
system.cpu.itb.stage2_mmu.stage2_tlb.readHits            0                       # DTB read hits
system.cpu.itb.stage2_mmu.stage2_tlb.readMisses            0                       # DTB read misses
system.cpu.itb.stage2_mmu.stage2_tlb.writeHits            0                       # DTB write hits
system.cpu.itb.stage2_mmu.stage2_tlb.writeMisses            0                       # DTB write misses
system.cpu.itb.stage2_mmu.stage2_tlb.inserts            0                       # Number of times an entry is inserted into the TLB
system.cpu.itb.stage2_mmu.stage2_tlb.flushTlb            0                       # Number of times complete TLB was flushed
system.cpu.itb.stage2_mmu.stage2_tlb.flushTlbMva            0                       # Number of times TLB was flushed by MVA
system.cpu.itb.stage2_mmu.stage2_tlb.flushTlbMvaAsid            0                       # Number of times TLB was flushed by MVA & ASID
system.cpu.itb.stage2_mmu.stage2_tlb.flushTlbAsid            0                       # Number of times TLB was flushed by ASID
system.cpu.itb.stage2_mmu.stage2_tlb.flushedEntries            0                       # Number of entries that have been flushed from TLB
system.cpu.itb.stage2_mmu.stage2_tlb.alignFaults            0                       # Number of TLB faults due to alignment restrictions
system.cpu.itb.stage2_mmu.stage2_tlb.prefetchFaults            0                       # Number of TLB faults due to prefetch
system.cpu.itb.stage2_mmu.stage2_tlb.domainFaults            0                       # Number of TLB faults due to domain restrictions
system.cpu.itb.stage2_mmu.stage2_tlb.permsFaults            0                       # Number of TLB faults due to permissions restrictions
system.cpu.itb.stage2_mmu.stage2_tlb.readAccesses            0                       # DTB read accesses
system.cpu.itb.stage2_mmu.stage2_tlb.writeAccesses            0                       # DTB write accesses
system.cpu.itb.stage2_mmu.stage2_tlb.instAccesses            0                       # ITB inst accesses
system.cpu.itb.stage2_mmu.stage2_tlb.hits            0                       # Total TLB (inst and data) hits
system.cpu.itb.stage2_mmu.stage2_tlb.misses            0                       # Total TLB (inst and data) misses
system.cpu.itb.stage2_mmu.stage2_tlb.accesses            0                       # Total TLB (inst and data) accesses
system.cpu.itb.stage2_mmu.stage2_tlb.walker.walks            0                       # Table walker walks requested
system.cpu.itb.stage2_mmu.stage2_tlb.walker.requestOrigin_Requested::Data            0                       # Table walker requests started/completed, data/inst
system.cpu.itb.stage2_mmu.stage2_tlb.walker.requestOrigin_Requested::Inst            0                       # Table walker requests started/completed, data/inst
system.cpu.itb.stage2_mmu.stage2_tlb.walker.requestOrigin_Requested::total            0                       # Table walker requests started/completed, data/inst
system.cpu.itb.stage2_mmu.stage2_tlb.walker.requestOrigin_Completed::Data            0                       # Table walker requests started/completed, data/inst
system.cpu.itb.stage2_mmu.stage2_tlb.walker.requestOrigin_Completed::Inst            0                       # Table walker requests started/completed, data/inst
system.cpu.itb.stage2_mmu.stage2_tlb.walker.requestOrigin_Completed::total            0                       # Table walker requests started/completed, data/inst
system.cpu.itb.stage2_mmu.stage2_tlb.walker.requestOrigin::total            0                       # Table walker requests started/completed, data/inst
system.cpu.itb.stage2_mmu.stage2_tlb.walker.power_state.pwrStateResidencyTicks::UNDEFINED 142479118000                       # Cumulative time (in ticks) in various power states
system.cpu.itb.walker.walks                         0                       # Table walker walks requested
system.cpu.itb.walker.requestOrigin_Requested::Data            0                       # Table walker requests started/completed, data/inst
system.cpu.itb.walker.requestOrigin_Requested::Inst            0                       # Table walker requests started/completed, data/inst
system.cpu.itb.walker.requestOrigin_Requested::total            0                       # Table walker requests started/completed, data/inst
system.cpu.itb.walker.requestOrigin_Completed::Data            0                       # Table walker requests started/completed, data/inst
system.cpu.itb.walker.requestOrigin_Completed::Inst            0                       # Table walker requests started/completed, data/inst
system.cpu.itb.walker.requestOrigin_Completed::total            0                       # Table walker requests started/completed, data/inst
system.cpu.itb.walker.requestOrigin::total            0                       # Table walker requests started/completed, data/inst
system.cpu.itb.walker.power_state.pwrStateResidencyTicks::UNDEFINED 142479118000                       # Cumulative time (in ticks) in various power states
system.cpu.power_state.pwrStateResidencyTicks::ON 142479118000                       # Cumulative time (in ticks) in various power states
system.cpu.thread17522.numInsts             100000000                       # Number of Instructions committed
system.cpu.thread17522.numOps               116826593                       # Number of Ops committed
system.cpu.thread17522.numMemRefs                   0                       # Number of Memory References
system.cpu_clk_domain.clock                      1000                       # Clock period in ticks
system.cpu_voltage_domain.voltage                   1                       # Voltage in Volts
system.l2.demand_hits::.cpu.inst                 1575                       # number of demand (read+write) hits
system.l2.demand_hits::.cpu.data               317777                       # number of demand (read+write) hits
system.l2.demand_hits::total                   319352                       # number of demand (read+write) hits
system.l2.overall_hits::.cpu.inst                1575                       # number of overall hits
system.l2.overall_hits::.cpu.data              317777                       # number of overall hits
system.l2.overall_hits::total                  319352                       # number of overall hits
system.l2.demand_misses::.cpu.inst               1951                       # number of demand (read+write) misses
system.l2.demand_misses::.cpu.data               8724                       # number of demand (read+write) misses
system.l2.demand_misses::total                  10675                       # number of demand (read+write) misses
system.l2.overall_misses::.cpu.inst              1951                       # number of overall misses
system.l2.overall_misses::.cpu.data              8724                       # number of overall misses
system.l2.overall_misses::total                 10675                       # number of overall misses
system.l2.demand_miss_latency::.cpu.inst    186948000                       # number of demand (read+write) miss cycles
system.l2.demand_miss_latency::.cpu.data    841157000                       # number of demand (read+write) miss cycles
system.l2.demand_miss_latency::total       1028105000                       # number of demand (read+write) miss cycles
system.l2.overall_miss_latency::.cpu.inst    186948000                       # number of overall miss cycles
system.l2.overall_miss_latency::.cpu.data    841157000                       # number of overall miss cycles
system.l2.overall_miss_latency::total      1028105000                       # number of overall miss cycles
system.l2.demand_accesses::.cpu.inst             3526                       # number of demand (read+write) accesses
system.l2.demand_accesses::.cpu.data           326501                       # number of demand (read+write) accesses
system.l2.demand_accesses::total               330027                       # number of demand (read+write) accesses
system.l2.overall_accesses::.cpu.inst            3526                       # number of overall (read+write) accesses
system.l2.overall_accesses::.cpu.data          326501                       # number of overall (read+write) accesses
system.l2.overall_accesses::total              330027                       # number of overall (read+write) accesses
system.l2.demand_miss_rate::.cpu.inst        0.553318                       # miss rate for demand accesses
system.l2.demand_miss_rate::.cpu.data        0.026720                       # miss rate for demand accesses
system.l2.demand_miss_rate::total            0.032346                       # miss rate for demand accesses
system.l2.overall_miss_rate::.cpu.inst       0.553318                       # miss rate for overall accesses
system.l2.overall_miss_rate::.cpu.data       0.026720                       # miss rate for overall accesses
system.l2.overall_miss_rate::total           0.032346                       # miss rate for overall accesses
system.l2.demand_avg_miss_latency::.cpu.inst 95821.629933                       # average overall miss latency
system.l2.demand_avg_miss_latency::.cpu.data 96418.729940                       # average overall miss latency
system.l2.demand_avg_miss_latency::total 96309.601874                       # average overall miss latency
system.l2.overall_avg_miss_latency::.cpu.inst 95821.629933                       # average overall miss latency
system.l2.overall_avg_miss_latency::.cpu.data 96418.729940                       # average overall miss latency
system.l2.overall_avg_miss_latency::total 96309.601874                       # average overall miss latency
system.l2.blocked_cycles::no_mshrs                  0                       # number of cycles access was blocked
system.l2.blocked_cycles::no_targets                0                       # number of cycles access was blocked
system.l2.blocked::no_mshrs                         0                       # number of cycles access was blocked
system.l2.blocked::no_targets                       0                       # number of cycles access was blocked
system.l2.avg_blocked_cycles::no_mshrs            nan                       # average number of cycles each access was blocked
system.l2.avg_blocked_cycles::no_targets          nan                       # average number of cycles each access was blocked
system.l2.demand_mshr_hits::.cpu.inst               3                       # number of demand (read+write) MSHR hits
system.l2.demand_mshr_hits::.cpu.data               9                       # number of demand (read+write) MSHR hits
system.l2.demand_mshr_hits::total                  12                       # number of demand (read+write) MSHR hits
system.l2.overall_mshr_hits::.cpu.inst              3                       # number of overall MSHR hits
system.l2.overall_mshr_hits::.cpu.data              9                       # number of overall MSHR hits
system.l2.overall_mshr_hits::total                 12                       # number of overall MSHR hits
system.l2.demand_mshr_misses::.cpu.inst          1948                       # number of demand (read+write) MSHR misses
system.l2.demand_mshr_misses::.cpu.data          8715                       # number of demand (read+write) MSHR misses
system.l2.demand_mshr_misses::total             10663                       # number of demand (read+write) MSHR misses
system.l2.overall_mshr_misses::.cpu.inst         1948                       # number of overall MSHR misses
system.l2.overall_mshr_misses::.cpu.data         8715                       # number of overall MSHR misses
system.l2.overall_mshr_misses::total            10663                       # number of overall MSHR misses
system.l2.demand_mshr_miss_latency::.cpu.inst    147869000                       # number of demand (read+write) MSHR miss cycles
system.l2.demand_mshr_miss_latency::.cpu.data    666088000                       # number of demand (read+write) MSHR miss cycles
system.l2.demand_mshr_miss_latency::total    813957000                       # number of demand (read+write) MSHR miss cycles
system.l2.overall_mshr_miss_latency::.cpu.inst    147869000                       # number of overall MSHR miss cycles
system.l2.overall_mshr_miss_latency::.cpu.data    666088000                       # number of overall MSHR miss cycles
system.l2.overall_mshr_miss_latency::total    813957000                       # number of overall MSHR miss cycles
system.l2.demand_mshr_miss_rate::.cpu.inst     0.552467                       # mshr miss rate for demand accesses
system.l2.demand_mshr_miss_rate::.cpu.data     0.026692                       # mshr miss rate for demand accesses
system.l2.demand_mshr_miss_rate::total       0.032309                       # mshr miss rate for demand accesses
system.l2.overall_mshr_miss_rate::.cpu.inst     0.552467                       # mshr miss rate for overall accesses
system.l2.overall_mshr_miss_rate::.cpu.data     0.026692                       # mshr miss rate for overall accesses
system.l2.overall_mshr_miss_rate::total      0.032309                       # mshr miss rate for overall accesses
system.l2.demand_avg_mshr_miss_latency::.cpu.inst 75908.110883                       # average overall mshr miss latency
system.l2.demand_avg_mshr_miss_latency::.cpu.data 76430.063110                       # average overall mshr miss latency
system.l2.demand_avg_mshr_miss_latency::total 76334.708806                       # average overall mshr miss latency
system.l2.overall_avg_mshr_miss_latency::.cpu.inst 75908.110883                       # average overall mshr miss latency
system.l2.overall_avg_mshr_miss_latency::.cpu.data 76430.063110                       # average overall mshr miss latency
system.l2.overall_avg_mshr_miss_latency::total 76334.708806                       # average overall mshr miss latency
system.l2.replacements                              0                       # number of replacements
system.l2.WritebackDirty_hits::.writebacks       319453                       # number of WritebackDirty hits
system.l2.WritebackDirty_hits::total           319453                       # number of WritebackDirty hits
system.l2.WritebackDirty_accesses::.writebacks       319453                       # number of WritebackDirty accesses(hits+misses)
system.l2.WritebackDirty_accesses::total       319453                       # number of WritebackDirty accesses(hits+misses)
system.l2.WritebackClean_hits::.writebacks         2574                       # number of WritebackClean hits
system.l2.WritebackClean_hits::total             2574                       # number of WritebackClean hits
system.l2.WritebackClean_accesses::.writebacks         2574                       # number of WritebackClean accesses(hits+misses)
system.l2.WritebackClean_accesses::total         2574                       # number of WritebackClean accesses(hits+misses)
system.l2.ReadExReq_hits::.cpu.data            266753                       # number of ReadExReq hits
system.l2.ReadExReq_hits::total                266753                       # number of ReadExReq hits
system.l2.ReadExReq_misses::.cpu.data            7316                       # number of ReadExReq misses
system.l2.ReadExReq_misses::total                7316                       # number of ReadExReq misses
system.l2.ReadExReq_miss_latency::.cpu.data    701250000                       # number of ReadExReq miss cycles
system.l2.ReadExReq_miss_latency::total     701250000                       # number of ReadExReq miss cycles
system.l2.ReadExReq_accesses::.cpu.data        274069                       # number of ReadExReq accesses(hits+misses)
system.l2.ReadExReq_accesses::total            274069                       # number of ReadExReq accesses(hits+misses)
system.l2.ReadExReq_miss_rate::.cpu.data     0.026694                       # miss rate for ReadExReq accesses
system.l2.ReadExReq_miss_rate::total         0.026694                       # miss rate for ReadExReq accesses
system.l2.ReadExReq_avg_miss_latency::.cpu.data 95851.558229                       # average ReadExReq miss latency
system.l2.ReadExReq_avg_miss_latency::total 95851.558229                       # average ReadExReq miss latency
system.l2.ReadExReq_mshr_misses::.cpu.data         7316                       # number of ReadExReq MSHR misses
system.l2.ReadExReq_mshr_misses::total           7316                       # number of ReadExReq MSHR misses
system.l2.ReadExReq_mshr_miss_latency::.cpu.data    554930000                       # number of ReadExReq MSHR miss cycles
system.l2.ReadExReq_mshr_miss_latency::total    554930000                       # number of ReadExReq MSHR miss cycles
system.l2.ReadExReq_mshr_miss_rate::.cpu.data     0.026694                       # mshr miss rate for ReadExReq accesses
system.l2.ReadExReq_mshr_miss_rate::total     0.026694                       # mshr miss rate for ReadExReq accesses
system.l2.ReadExReq_avg_mshr_miss_latency::.cpu.data 75851.558229                       # average ReadExReq mshr miss latency
system.l2.ReadExReq_avg_mshr_miss_latency::total 75851.558229                       # average ReadExReq mshr miss latency
system.l2.ReadCleanReq_hits::.cpu.inst           1575                       # number of ReadCleanReq hits
system.l2.ReadCleanReq_hits::total               1575                       # number of ReadCleanReq hits
system.l2.ReadCleanReq_misses::.cpu.inst         1951                       # number of ReadCleanReq misses
system.l2.ReadCleanReq_misses::total             1951                       # number of ReadCleanReq misses
system.l2.ReadCleanReq_miss_latency::.cpu.inst    186948000                       # number of ReadCleanReq miss cycles
system.l2.ReadCleanReq_miss_latency::total    186948000                       # number of ReadCleanReq miss cycles
system.l2.ReadCleanReq_accesses::.cpu.inst         3526                       # number of ReadCleanReq accesses(hits+misses)
system.l2.ReadCleanReq_accesses::total           3526                       # number of ReadCleanReq accesses(hits+misses)
system.l2.ReadCleanReq_miss_rate::.cpu.inst     0.553318                       # miss rate for ReadCleanReq accesses
system.l2.ReadCleanReq_miss_rate::total      0.553318                       # miss rate for ReadCleanReq accesses
system.l2.ReadCleanReq_avg_miss_latency::.cpu.inst 95821.629933                       # average ReadCleanReq miss latency
system.l2.ReadCleanReq_avg_miss_latency::total 95821.629933                       # average ReadCleanReq miss latency
system.l2.ReadCleanReq_mshr_hits::.cpu.inst            3                       # number of ReadCleanReq MSHR hits
system.l2.ReadCleanReq_mshr_hits::total             3                       # number of ReadCleanReq MSHR hits
system.l2.ReadCleanReq_mshr_misses::.cpu.inst         1948                       # number of ReadCleanReq MSHR misses
system.l2.ReadCleanReq_mshr_misses::total         1948                       # number of ReadCleanReq MSHR misses
system.l2.ReadCleanReq_mshr_miss_latency::.cpu.inst    147869000                       # number of ReadCleanReq MSHR miss cycles
system.l2.ReadCleanReq_mshr_miss_latency::total    147869000                       # number of ReadCleanReq MSHR miss cycles
system.l2.ReadCleanReq_mshr_miss_rate::.cpu.inst     0.552467                       # mshr miss rate for ReadCleanReq accesses
system.l2.ReadCleanReq_mshr_miss_rate::total     0.552467                       # mshr miss rate for ReadCleanReq accesses
system.l2.ReadCleanReq_avg_mshr_miss_latency::.cpu.inst 75908.110883                       # average ReadCleanReq mshr miss latency
system.l2.ReadCleanReq_avg_mshr_miss_latency::total 75908.110883                       # average ReadCleanReq mshr miss latency
system.l2.ReadSharedReq_hits::.cpu.data         51024                       # number of ReadSharedReq hits
system.l2.ReadSharedReq_hits::total             51024                       # number of ReadSharedReq hits
system.l2.ReadSharedReq_misses::.cpu.data         1408                       # number of ReadSharedReq misses
system.l2.ReadSharedReq_misses::total            1408                       # number of ReadSharedReq misses
system.l2.ReadSharedReq_miss_latency::.cpu.data    139907000                       # number of ReadSharedReq miss cycles
system.l2.ReadSharedReq_miss_latency::total    139907000                       # number of ReadSharedReq miss cycles
system.l2.ReadSharedReq_accesses::.cpu.data        52432                       # number of ReadSharedReq accesses(hits+misses)
system.l2.ReadSharedReq_accesses::total         52432                       # number of ReadSharedReq accesses(hits+misses)
system.l2.ReadSharedReq_miss_rate::.cpu.data     0.026854                       # miss rate for ReadSharedReq accesses
system.l2.ReadSharedReq_miss_rate::total     0.026854                       # miss rate for ReadSharedReq accesses
system.l2.ReadSharedReq_avg_miss_latency::.cpu.data 99365.767045                       # average ReadSharedReq miss latency
system.l2.ReadSharedReq_avg_miss_latency::total 99365.767045                       # average ReadSharedReq miss latency
system.l2.ReadSharedReq_mshr_hits::.cpu.data            9                       # number of ReadSharedReq MSHR hits
system.l2.ReadSharedReq_mshr_hits::total            9                       # number of ReadSharedReq MSHR hits
system.l2.ReadSharedReq_mshr_misses::.cpu.data         1399                       # number of ReadSharedReq MSHR misses
system.l2.ReadSharedReq_mshr_misses::total         1399                       # number of ReadSharedReq MSHR misses
system.l2.ReadSharedReq_mshr_miss_latency::.cpu.data    111158000                       # number of ReadSharedReq MSHR miss cycles
system.l2.ReadSharedReq_mshr_miss_latency::total    111158000                       # number of ReadSharedReq MSHR miss cycles
system.l2.ReadSharedReq_mshr_miss_rate::.cpu.data     0.026682                       # mshr miss rate for ReadSharedReq accesses
system.l2.ReadSharedReq_mshr_miss_rate::total     0.026682                       # mshr miss rate for ReadSharedReq accesses
system.l2.ReadSharedReq_avg_mshr_miss_latency::.cpu.data 79455.325232                       # average ReadSharedReq mshr miss latency
system.l2.ReadSharedReq_avg_mshr_miss_latency::total 79455.325232                       # average ReadSharedReq mshr miss latency
system.l2.power_state.pwrStateResidencyTicks::UNDEFINED 142479118000                       # Cumulative time (in ticks) in various power states
system.l2.tags.tagsinuse                 10455.856432                       # Cycle average of tags in use
system.l2.tags.total_refs                      655339                       # Total number of references to valid blocks.
system.l2.tags.sampled_refs                     10663                       # Sample count of references to valid blocks.
system.l2.tags.avg_refs                     61.459158                       # Average number of references to valid blocks.
system.l2.tags.warmup_cycle                     87000                       # Cycle when the warmup percentage was hit.
system.l2.tags.occ_blocks::.cpu.inst      1941.050380                       # Average occupied blocks per requestor
system.l2.tags.occ_blocks::.cpu.data      8514.806052                       # Average occupied blocks per requestor
system.l2.tags.occ_percent::.cpu.inst        0.029618                       # Average percentage of cache occupancy
system.l2.tags.occ_percent::.cpu.data        0.129926                       # Average percentage of cache occupancy
system.l2.tags.occ_percent::total            0.159544                       # Average percentage of cache occupancy
system.l2.tags.occ_task_id_blocks::1024         10663                       # Occupied blocks per task id
system.l2.tags.age_task_id_blocks_1024::4        10663                       # Occupied blocks per task id
system.l2.tags.occ_task_id_percent::1024     0.162704                       # Percentage of cache occupancy per task id
system.l2.tags.tag_accesses                   5253471                       # Number of tag accesses
system.l2.tags.data_accesses                  5253471                       # Number of data accesses
system.l2.tags.power_state.pwrStateResidencyTicks::UNDEFINED 142479118000                       # Cumulative time (in ticks) in various power states
system.mem_ctrls.avgPriority_.cpu.inst::samples      1948.00                       # Average QoS priority value for accepted requests
system.mem_ctrls.avgPriority_.cpu.data::samples      8715.00                       # Average QoS priority value for accepted requests
system.mem_ctrls.priorityMinLatency      0.000000018750                       # per QoS priority minimum request to response latency (s)
system.mem_ctrls.priorityMaxLatency      0.000000584000                       # per QoS priority maximum request to response latency (s)
system.mem_ctrls.numReadWriteTurnArounds            0                       # Number of turnarounds from READ to WRITE
system.mem_ctrls.numWriteReadTurnArounds            0                       # Number of turnarounds from WRITE to READ
system.mem_ctrls.numStayReadState               57908                       # Number of times bus staying in READ state
system.mem_ctrls.numStayWriteState                  0                       # Number of times bus staying in WRITE state
system.mem_ctrls.readReqs                       10663                       # Number of read requests accepted
system.mem_ctrls.writeReqs                          0                       # Number of write requests accepted
system.mem_ctrls.readBursts                     10663                       # Number of controller read bursts, including those serviced by the write queue
system.mem_ctrls.writeBursts                        0                       # Number of controller write bursts, including those merged in the write queue
system.mem_ctrls.servicedByWrQ                      0                       # Number of controller read bursts serviced by the write queue
system.mem_ctrls.mergedWrBursts                     0                       # Number of controller write bursts merged with an existing one
system.mem_ctrls.neitherReadNorWriteReqs            0                       # Number of requests that are neither read nor write
system.mem_ctrls.avgRdQLen                       1.04                       # Average read queue length when enqueuing
system.mem_ctrls.avgWrQLen                       0.00                       # Average write queue length when enqueuing
system.mem_ctrls.numRdRetry                         0                       # Number of times read queue was full causing retry
system.mem_ctrls.numWrRetry                         0                       # Number of times write queue was full causing retry
system.mem_ctrls.readPktSize::0                     0                       # Read request sizes (log2)
system.mem_ctrls.readPktSize::1                     0                       # Read request sizes (log2)
system.mem_ctrls.readPktSize::2                     0                       # Read request sizes (log2)
system.mem_ctrls.readPktSize::3                     0                       # Read request sizes (log2)
system.mem_ctrls.readPktSize::4                     0                       # Read request sizes (log2)
system.mem_ctrls.readPktSize::5                 10663                       # Read request sizes (log2)
system.mem_ctrls.writePktSize::0                    0                       # Write request sizes (log2)
system.mem_ctrls.writePktSize::1                    0                       # Write request sizes (log2)
system.mem_ctrls.writePktSize::2                    0                       # Write request sizes (log2)
system.mem_ctrls.writePktSize::3                    0                       # Write request sizes (log2)
system.mem_ctrls.writePktSize::4                    0                       # Write request sizes (log2)
system.mem_ctrls.writePktSize::5                    0                       # Write request sizes (log2)
[...]
system.mem_ctrls.dram.bw_read::.cpu.data      1957339                       # Total read bandwidth from this memory (bytes/s)
system.mem_ctrls.dram.bw_read::total          2394849                       # Total read bandwidth from this memory (bytes/s)
system.mem_ctrls.dram.bw_inst_read::.cpu.inst       437510                       # Instruction read bandwidth from this memory (bytes/s)
system.mem_ctrls.dram.bw_inst_read::total       437510                       # Instruction read bandwidth from this memory (bytes/s)
system.mem_ctrls.dram.bw_total::.cpu.inst       437510                       # Total bandwidth to/from this memory (bytes/s)
system.mem_ctrls.dram.bw_total::.cpu.data      1957339                       # Total bandwidth to/from this memory (bytes/s)
system.mem_ctrls.dram.bw_total::total         2394849                       # Total bandwidth to/from this memory (bytes/s)
system.mem_ctrls.dram.readBursts                10663                       # Number of DRAM read bursts
system.mem_ctrls.dram.writeBursts                   0                       # Number of DRAM write bursts
system.mem_ctrls.dram.perBankRdBursts::0          777                       # Per bank write bursts
system.mem_ctrls.dram.perBankRdBursts::1          719                       # Per bank write bursts
system.mem_ctrls.dram.perBankRdBursts::2          700                       # Per bank write bursts
system.mem_ctrls.dram.perBankRdBursts::3          642                       # Per bank write bursts
system.mem_ctrls.dram.perBankRdBursts::4          676                       # Per bank write bursts
system.mem_ctrls.dram.perBankRdBursts::5          579                       # Per bank write bursts
system.mem_ctrls.dram.perBankRdBursts::6          715                       # Per bank write bursts
system.mem_ctrls.dram.perBankRdBursts::7          708                       # Per bank write bursts
system.mem_ctrls.dram.perBankRdBursts::8          429                       # Per bank write bursts
system.mem_ctrls.dram.perBankRdBursts::9          640                       # Per bank write bursts
system.mem_ctrls.dram.perBankRdBursts::10          571                       # Per bank write bursts
system.mem_ctrls.dram.perBankRdBursts::11          654                       # Per bank write bursts
system.mem_ctrls.dram.perBankRdBursts::12          683                       # Per bank write bursts
system.mem_ctrls.dram.perBankRdBursts::13          759                       # Per bank write bursts
system.mem_ctrls.dram.perBankRdBursts::14          805                       # Per bank write bursts
system.mem_ctrls.dram.perBankRdBursts::15          606                       # Per bank write bursts
system.mem_ctrls.dram.perBankWrBursts::0            0                       # Per bank write bursts
system.mem_ctrls.dram.perBankWrBursts::1            0                       # Per bank write bursts
system.mem_ctrls.dram.perBankWrBursts::2            0                       # Per bank write bursts
system.mem_ctrls.dram.perBankWrBursts::3            0                       # Per bank write bursts
system.mem_ctrls.dram.perBankWrBursts::4            0                       # Per bank write bursts
system.mem_ctrls.dram.perBankWrBursts::5            0                       # Per bank write bursts
system.mem_ctrls.dram.perBankWrBursts::6            0                       # Per bank write bursts
system.mem_ctrls.dram.perBankWrBursts::7            0                       # Per bank write bursts
system.mem_ctrls.dram.perBankWrBursts::8            0                       # Per bank write bursts
system.mem_ctrls.dram.perBankWrBursts::9            0                       # Per bank write bursts
system.mem_ctrls.dram.perBankWrBursts::10            0                       # Per bank write bursts
system.mem_ctrls.dram.perBankWrBursts::11            0                       # Per bank write bursts
system.mem_ctrls.dram.perBankWrBursts::12            0                       # Per bank write bursts
system.mem_ctrls.dram.perBankWrBursts::13            0                       # Per bank write bursts
system.mem_ctrls.dram.perBankWrBursts::14            0                       # Per bank write bursts
system.mem_ctrls.dram.perBankWrBursts::15            0                       # Per bank write bursts
system.mem_ctrls.dram.totQLat                67097500                       # Total ticks spent queuing
system.mem_ctrls.dram.totBusLat              53315000                       # Total ticks spent in databus transfers
system.mem_ctrls.dram.totMemAccLat          267028750                       # Total ticks spent from burst creation until serviced by the DRAM
system.mem_ctrls.dram.avgQLat                 6292.55                       # Average queueing delay per DRAM burst
system.mem_ctrls.dram.avgBusLat               5000.00                       # Average bus latency per DRAM burst
system.mem_ctrls.dram.avgMemAccLat           25042.55                       # Average memory access latency per DRAM burst
system.mem_ctrls.dram.readRowHits                9066                       # Number of row buffer hits during reads
system.mem_ctrls.dram.writeRowHits                  0                       # Number of row buffer hits during writes
system.mem_ctrls.dram.readRowHitRate            85.02                       # Row buffer hit rate for reads
system.mem_ctrls.dram.writeRowHitRate             nan                       # Row buffer hit rate for writes
system.mem_ctrls.dram.bytesPerActivate::samples         1597                       # Bytes accessed per row activation
system.mem_ctrls.dram.bytesPerActivate::mean   427.321227                       # Bytes accessed per row activation
system.mem_ctrls.dram.bytesPerActivate::gmean   278.571090                       # Bytes accessed per row activation
system.mem_ctrls.dram.bytesPerActivate::stdev   351.176169                       # Bytes accessed per row activation
system.mem_ctrls.dram.bytesPerActivate::0-127          325     20.35%     20.35% # Bytes accessed per row activation
system.mem_ctrls.dram.bytesPerActivate::128-255          373     23.36%     43.71% # Bytes accessed per row activation
system.mem_ctrls.dram.bytesPerActivate::256-383          142      8.89%     52.60% # Bytes accessed per row activation
system.mem_ctrls.dram.bytesPerActivate::384-511          230     14.40%     67.00% # Bytes accessed per row activation
system.mem_ctrls.dram.bytesPerActivate::512-639           61      3.82%     70.82% # Bytes accessed per row activation
system.mem_ctrls.dram.bytesPerActivate::640-767           53      3.32%     74.14% # Bytes accessed per row activation
system.mem_ctrls.dram.bytesPerActivate::768-895           90      5.64%     79.77% # Bytes accessed per row activation
system.mem_ctrls.dram.bytesPerActivate::896-1023           71      4.45%     84.22% # Bytes accessed per row activation
system.mem_ctrls.dram.bytesPerActivate::1024-1151          252     15.78%    100.00% # Bytes accessed per row activation
system.mem_ctrls.dram.bytesPerActivate::total         1597                       # Bytes accessed per row activation
system.mem_ctrls.dram.bytesRead                682432                       # Total number of bytes read from DRAM
system.mem_ctrls.dram.bytesWritten                  0                       # Total number of bytes written to DRAM
system.mem_ctrls.dram.avgRdBW                4.789698                       # Average DRAM read bandwidth in MiBytes/s
system.mem_ctrls.dram.avgWrBW                       0                       # Average DRAM write bandwidth in MiBytes/s
system.mem_ctrls.dram.peakBW                 12800.00                       # Theoretical peak bandwidth in MiByte/s
system.mem_ctrls.dram.busUtil                    0.04                       # Data bus utilization in percentage
system.mem_ctrls.dram.busUtilRead                0.04                       # Data bus utilization in percentage for reads
system.mem_ctrls.dram.busUtilWrite               0.00                       # Data bus utilization in percentage for writes
system.mem_ctrls.dram.pageHitRate               85.02                       # Row buffer hit rate, read and write combined
system.mem_ctrls.dram.power_state.pwrStateResidencyTicks::UNDEFINED 142479118000                       # Cumulative time (in ticks) in various power states
system.mem_ctrls.dram.rank0.actEnergy         6433140                       # Energy for activate commands per rank (pJ)
system.mem_ctrls.dram.rank0.preEnergy         3419295                       # Energy for precharge commands per rank (pJ)
system.mem_ctrls.dram.rank0.readEnergy       39384240                       # Energy for read commands per rank (pJ)
system.mem_ctrls.dram.rank0.writeEnergy             0                       # Energy for write commands per rank (pJ)
system.mem_ctrls.dram.rank0.refreshEnergy 11246682720.000002                       # Energy for refresh commands per rank (pJ)
system.mem_ctrls.dram.rank0.actBackEnergy   3182723250                       # Energy for active background per rank (pJ)
system.mem_ctrls.dram.rank0.preBackEnergy  52031793600                       # Energy for precharge background per rank (pJ)
system.mem_ctrls.dram.rank0.actPowerDownEnergy            0                       # Energy for active power-down per rank (pJ)
system.mem_ctrls.dram.rank0.prePowerDownEnergy            0                       # Energy for precharge power-down per rank (pJ)
system.mem_ctrls.dram.rank0.selfRefreshEnergy            0                       # Energy for self refresh per rank (pJ)
system.mem_ctrls.dram.rank0.totalEnergy   66510436245                       # Total energy per rank (pJ)
system.mem_ctrls.dram.rank0.averagePower   466.808310                       # Core power per rank (mW)
system.mem_ctrls.dram.rank0.totalIdleTime            0                       # Total Idle time Per DRAM Rank
system.mem_ctrls.dram.rank0.pwrStateTime::IDLE 135241127500                       # Time in different power states
system.mem_ctrls.dram.rank0.pwrStateTime::REF   4757480000                       # Time in different power states
system.mem_ctrls.dram.rank0.pwrStateTime::SREF            0                       # Time in different power states
system.mem_ctrls.dram.rank0.pwrStateTime::PRE_PDN            0                       # Time in different power states
system.mem_ctrls.dram.rank0.pwrStateTime::ACT   2480510500                       # Time in different power states
system.mem_ctrls.dram.rank0.pwrStateTime::ACT_PDN            0                       # Time in different power states
system.mem_ctrls.dram.rank1.actEnergy         4969440                       # Energy for activate commands per rank (pJ)
system.mem_ctrls.dram.rank1.preEnergy         2641320                       # Energy for precharge commands per rank (pJ)
system.mem_ctrls.dram.rank1.readEnergy       36749580                       # Energy for read commands per rank (pJ)
system.mem_ctrls.dram.rank1.writeEnergy             0                       # Energy for write commands per rank (pJ)
system.mem_ctrls.dram.rank1.refreshEnergy 11246682720.000002                       # Energy for refresh commands per rank (pJ)
system.mem_ctrls.dram.rank1.actBackEnergy   2925356850                       # Energy for active background per rank (pJ)
system.mem_ctrls.dram.rank1.preBackEnergy  52248523200                       # Energy for precharge background per rank (pJ)
system.mem_ctrls.dram.rank1.actPowerDownEnergy            0                       # Energy for active power-down per rank (pJ)
system.mem_ctrls.dram.rank1.prePowerDownEnergy            0                       # Energy for precharge power-down per rank (pJ)
system.mem_ctrls.dram.rank1.selfRefreshEnergy            0                       # Energy for self refresh per rank (pJ)
system.mem_ctrls.dram.rank1.totalEnergy   66464923110                       # Total energy per rank (pJ)
system.mem_ctrls.dram.rank1.averagePower   466.488872                       # Core power per rank (mW)
system.mem_ctrls.dram.rank1.totalIdleTime            0                       # Total Idle time Per DRAM Rank
system.mem_ctrls.dram.rank1.pwrStateTime::IDLE 135806987750                       # Time in different power states
system.mem_ctrls.dram.rank1.pwrStateTime::REF   4757480000                       # Time in different power states
system.mem_ctrls.dram.rank1.pwrStateTime::SREF            0                       # Time in different power states
system.mem_ctrls.dram.rank1.pwrStateTime::PRE_PDN            0                       # Time in different power states
system.mem_ctrls.dram.rank1.pwrStateTime::ACT   1914650250                       # Time in different power states
system.mem_ctrls.dram.rank1.pwrStateTime::ACT_PDN            0                       # Time in different power states
system.mem_ctrls.power_state.pwrStateResidencyTicks::UNDEFINED 142479118000                       # Cumulative time (in ticks) in various power states
system.membus.trans_dist::ReadResp               3347                       # Transaction distribution
system.membus.trans_dist::ReadExReq              7316                       # Transaction distribution
system.membus.trans_dist::ReadExResp             7316                       # Transaction distribution
system.membus.trans_dist::ReadSharedReq          3347                       # Transaction distribution
system.membus.pkt_count_system.l2.mem_side_port::system.mem_ctrls.port        21326                       # Packet count per connected requestor and responder (bytes)
system.membus.pkt_count::total                  21326                       # Packet count per connected requestor and responder (bytes)
system.membus.pkt_size_system.l2.mem_side_port::system.mem_ctrls.port       341216                       # Cumulative packet size per connected requestor and responder (bytes)
system.membus.pkt_size::total                  341216                       # Cumulative packet size per connected requestor and responder (bytes)
system.membus.snoops                                0                       # Total snoops (count)
system.membus.snoopTraffic                          0                       # Total snoop traffic (bytes)
system.membus.snoop_fanout::samples             10663                       # Request fanout histogram
system.membus.snoop_fanout::mean                    0                       # Request fanout histogram
system.membus.snoop_fanout::stdev                   0                       # Request fanout histogram
system.membus.snoop_fanout::underflows              0      0.00%      0.00% # Request fanout histogram
system.membus.snoop_fanout::0                   10663    100.00%    100.00% # Request fanout histogram
system.membus.snoop_fanout::1                       0      0.00%    100.00% # Request fanout histogram
system.membus.snoop_fanout::overflows               0      0.00%    100.00% # Request fanout histogram
system.membus.snoop_fanout::min_value               0                       # Request fanout histogram
system.membus.snoop_fanout::max_value               0                       # Request fanout histogram
system.membus.snoop_fanout::total               10663                       # Request fanout histogram
system.membus.power_state.pwrStateResidencyTicks::UNDEFINED 142479118000                       # Cumulative time (in ticks) in various power states
system.membus.reqLayer0.occupancy            10663000                       # Layer occupancy (ticks)
system.membus.reqLayer0.utilization               0.0                       # Layer utilization (%)
system.membus.respLayer1.occupancy           35104250                       # Layer occupancy (ticks)
system.membus.respLayer1.utilization              0.0                       # Layer utilization (%)
system.tol2bus.trans_dist::ReadResp             55958                       # Transaction distribution
system.tol2bus.trans_dist::WritebackDirty       319453                       # Transaction distribution
system.tol2bus.trans_dist::WritebackClean         2619                       # Transaction distribution
system.tol2bus.trans_dist::CleanEvict            5000                       # Transaction distribution
system.tol2bus.trans_dist::ReadExReq           274069                       # Transaction distribution
system.tol2bus.trans_dist::ReadExResp          274069                       # Transaction distribution
system.tol2bus.trans_dist::ReadCleanReq          3526                       # Transaction distribution
system.tol2bus.trans_dist::ReadSharedReq        52432                       # Transaction distribution
system.tol2bus.pkt_count_system.cpu.icache.mem_side_port::system.l2.cpu_side_port         9671                       # Packet count per connected requestor and responder (bytes)
system.tol2bus.pkt_count_system.cpu.dcache.mem_side_port::system.l2.cpu_side_port       977455                       # Packet count per connected requestor and responder (bytes)
system.tol2bus.pkt_count::total                987126                       # Packet count per connected requestor and responder (bytes)
system.tol2bus.pkt_size_system.cpu.icache.mem_side_port::system.l2.cpu_side_port       196640                       # Cumulative packet size per connected requestor and responder (bytes)
system.tol2bus.pkt_size_system.cpu.dcache.mem_side_port::system.l2.cpu_side_port     20670528                       # Cumulative packet size per connected requestor and responder (bytes)
system.tol2bus.pkt_size::total               20867168                       # Cumulative packet size per connected requestor and responder (bytes)
system.tol2bus.snoops                               0                       # Total snoops (count)
system.tol2bus.snoopTraffic                         0                       # Total snoop traffic (bytes)
system.tol2bus.snoop_fanout::samples           330027                       # Request fanout histogram
system.tol2bus.snoop_fanout::mean            0.005321                       # Request fanout histogram
system.tol2bus.snoop_fanout::stdev           0.072749                       # Request fanout histogram
system.tol2bus.snoop_fanout::underflows             0      0.00%      0.00% # Request fanout histogram
system.tol2bus.snoop_fanout::0                 328271     99.47%     99.47% # Request fanout histogram
system.tol2bus.snoop_fanout::1                   1756      0.53%    100.00% # Request fanout histogram
system.tol2bus.snoop_fanout::2                      0      0.00%    100.00% # Request fanout histogram
system.tol2bus.snoop_fanout::overflows              0      0.00%    100.00% # Request fanout histogram
system.tol2bus.snoop_fanout::min_value              0                       # Request fanout histogram
system.tol2bus.snoop_fanout::max_value              1                       # Request fanout histogram
system.tol2bus.snoop_fanout::total             330027                       # Request fanout histogram
system.tol2bus.power_state.pwrStateResidencyTicks::UNDEFINED 142479118000                       # Cumulative time (in ticks) in various power states
system.tol2bus.reqLayer0.occupancy          979171000                       # Layer occupancy (ticks)
system.tol2bus.reqLayer0.utilization              0.7                       # Layer utilization (%)
system.tol2bus.respLayer0.occupancy           7055996                       # Layer occupancy (ticks)
system.tol2bus.respLayer0.utilization             0.0                       # Layer utilization (%)
system.tol2bus.respLayer1.occupancy         653011990                       # Layer occupancy (ticks)
system.tol2bus.respLayer1.utilization             0.5                       # Layer utilization (%)
system.voltage_domain.voltage                       1                       # Voltage in Volts

---------- End Simulation Statistics   ----------
