
---------- Begin Simulation Statistics ----------
final_tick                               123825220000                       # Number of ticks from beginning of simulation (restored from checkpoints and never reset)
host_inst_rate                                 236435                       # Simulator instruction rate (inst/s)
host_mem_usage                                 665852                       # Number of bytes of host memory used
host_op_rate                                   258734                       # Simulator op (including micro ops) rate (op/s)
host_seconds                                   422.95                       # Real time elapsed on the host
host_tick_rate                              292765882                       # Simulator tick rate (ticks/s)
sim_freq                                 1000000000000                       # Frequency of simulated ticks
sim_insts                                   100000001                       # Number of instructions simulated
sim_ops                                     109431277                       # Number of ops (including micro ops) simulated
sim_seconds                                  0.123825                       # Number of seconds simulated
sim_ticks                                123825220000                       # Number of ticks simulated
system.cpu.committedInsts                   100000001                       # Number of instructions committed
system.cpu.committedOps                     109431277                       # Number of ops (including micro ops) committed
system.cpu.cpi                               1.238252                       # CPI: cycles per instruction
system.cpu.discardedOps                        381221                       # Number of ops (including micro ops) which were discarded before commit
system.cpu.idleCycles                        10270428                       # Total number of cycles that the object has spent stopped
system.cpu.ipc                               0.807590                       # IPC: instructions per cycle
system.cpu.numCycles                        123825220                       # number of cpu cycles simulated
system.cpu.numFetchSuspends                         0                       # Number of times Execute suspended instruction fetching
system.cpu.numWorkItemsCompleted                    0                       # number of work items this cpu completed
system.cpu.numWorkItemsStarted                      0                       # number of work items this cpu started
system.cpu.op_class_0::No_OpClass                   0      0.00%      0.00% # Class of committed instruction
system.cpu.op_class_0::IntAlu                72955010     66.67%     66.67% # Class of committed instruction
system.cpu.op_class_0::IntMult                 568364      0.52%     67.19% # Class of committed instruction
system.cpu.op_class_0::IntDiv                       0      0.00%     67.19% # Class of committed instruction
system.cpu.op_class_0::FloatAdd                     0      0.00%     67.19% # Class of committed instruction
system.cpu.op_class_0::FloatCmp                     0      0.00%     67.19% # Class of committed instruction
system.cpu.op_class_0::FloatCvt                     0      0.00%     67.19% # Class of committed instruction
system.cpu.op_class_0::FloatMult                    0      0.00%     67.19% # Class of committed instruction
system.cpu.op_class_0::FloatMultAcc                 0      0.00%     67.19% # Class of committed instruction
system.cpu.op_class_0::FloatDiv                     0      0.00%     67.19% # Class of committed instruction
system.cpu.op_class_0::FloatMisc                    0      0.00%     67.19% # Class of committed instruction
system.cpu.op_class_0::FloatSqrt                    0      0.00%     67.19% # Class of committed instruction
system.cpu.op_class_0::SimdAdd                 241336      0.22%     67.41% # Class of committed instruction
system.cpu.op_class_0::SimdAddAcc                   0      0.00%     67.41% # Class of committed instruction
system.cpu.op_class_0::SimdAlu                 154628      0.14%     67.55% # Class of committed instruction
system.cpu.op_class_0::SimdCmp                 120668      0.11%     67.66% # Class of committed instruction
system.cpu.op_class_0::SimdCvt                      0      0.00%     67.66% # Class of committed instruction
system.cpu.op_class_0::SimdMisc                 44543      0.04%     67.70% # Class of committed instruction
system.cpu.op_class_0::SimdMult                     0      0.00%     67.70% # Class of committed instruction
system.cpu.op_class_0::SimdMultAcc                  0      0.00%     67.70% # Class of committed instruction
system.cpu.op_class_0::SimdShift                    0      0.00%     67.70% # Class of committed instruction
system.cpu.op_class_0::SimdShiftAcc                 0      0.00%     67.70% # Class of committed instruction
system.cpu.op_class_0::SimdDiv                      0      0.00%     67.70% # Class of committed instruction
system.cpu.op_class_0::SimdSqrt                     0      0.00%     67.70% # Class of committed instruction
system.cpu.op_class_0::SimdFloatAdd                 0      0.00%     67.70% # Class of committed instruction
system.cpu.op_class_0::SimdFloatAlu                 0      0.00%     67.70% # Class of committed instruction
system.cpu.op_class_0::SimdFloatCmp                 0      0.00%     67.70% # Class of committed instruction
system.cpu.op_class_0::SimdFloatCvt                 0      0.00%     67.70% # Class of committed instruction
system.cpu.op_class_0::SimdFloatDiv                 0      0.00%     67.70% # Class of committed instruction
system.cpu.op_class_0::SimdFloatMisc           166417      0.15%     67.85% # Class of committed instruction
system.cpu.op_class_0::SimdFloatMult                0      0.00%     67.85% # Class of committed instruction
system.cpu.op_class_0::SimdFloatMultAcc             0      0.00%     67.85% # Class of committed instruction
system.cpu.op_class_0::SimdFloatSqrt                0      0.00%     67.85% # Class of committed instruction
system.cpu.op_class_0::SimdReduceAdd                0      0.00%     67.85% # Class of committed instruction
system.cpu.op_class_0::SimdReduceAlu                0      0.00%     67.85% # Class of committed instruction
system.cpu.op_class_0::SimdReduceCmp                0      0.00%     67.85% # Class of committed instruction
system.cpu.op_class_0::SimdFloatReduceAdd            0      0.00%     67.85% # Class of committed instruction
system.cpu.op_class_0::SimdFloatReduceCmp            0      0.00%     67.85% # Class of committed instruction
system.cpu.op_class_0::SimdAes                      0      0.00%     67.85% # Class of committed instruction
system.cpu.op_class_0::SimdAesMix                   0      0.00%     67.85% # Class of committed instruction
system.cpu.op_class_0::SimdSha1Hash                 0      0.00%     67.85% # Class of committed instruction
system.cpu.op_class_0::SimdSha1Hash2                0      0.00%     67.85% # Class of committed instruction
system.cpu.op_class_0::SimdSha256Hash               0      0.00%     67.85% # Class of committed instruction
system.cpu.op_class_0::SimdSha256Hash2              0      0.00%     67.85% # Class of committed instruction
system.cpu.op_class_0::SimdShaSigma2                0      0.00%     67.85% # Class of committed instruction
system.cpu.op_class_0::SimdShaSigma3                0      0.00%     67.85% # Class of committed instruction
system.cpu.op_class_0::SimdPredAlu                  0      0.00%     67.85% # Class of committed instruction
system.cpu.op_class_0::MemRead               20645992     18.87%     86.72% # Class of committed instruction
system.cpu.op_class_0::MemWrite              14534319     13.28%    100.00% # Class of committed instruction
system.cpu.op_class_0::FloatMemRead                 0      0.00%    100.00% # Class of committed instruction
system.cpu.op_class_0::FloatMemWrite                0      0.00%    100.00% # Class of committed instruction
system.cpu.op_class_0::IprAccess                    0      0.00%    100.00% # Class of committed instruction
system.cpu.op_class_0::InstPrefetch                 0      0.00%    100.00% # Class of committed instruction
system.cpu.op_class_0::total                109431277                       # Class of committed instruction
system.cpu.tickCycles                       113554792                       # Number of cycles that the object actually ticked
system.cpu.workload.numSyscalls                    87                       # Number of system calls
system.membus.snoop_filter.hit_multi_requests            0                       # Number of requests hitting in the snoop filter with multiple (>1) holders of the requested data.
system.membus.snoop_filter.hit_multi_snoops            0                       # Number of snoops hitting in the snoop filter with multiple (>1) holders of the requested data.
system.membus.snoop_filter.hit_single_requests         6711                       # Number of requests hitting in the snoop filter with a single holder of the requested data.
system.membus.snoop_filter.hit_single_snoops            0                       # Number of snoops hitting in the snoop filter with a single holder of the requested data.
system.membus.snoop_filter.tot_requests         46570                       # Total number of requests made to the snoop filter.
system.membus.snoop_filter.tot_snoops               0                       # Total number of snoops made to the snoop filter.
system.tol2bus.snoop_filter.hit_multi_requests         1637                       # Number of requests hitting in the snoop filter with multiple (>1) holders of the requested data.
system.tol2bus.snoop_filter.hit_multi_snoops            0                       # Number of snoops hitting in the snoop filter with multiple (>1) holders of the requested data.
system.tol2bus.snoop_filter.hit_single_requests       616309                       # Number of requests hitting in the snoop filter with a single holder of the requested data.
system.tol2bus.snoop_filter.hit_single_snoops          383                       # Number of snoops hitting in the snoop filter with a single holder of the requested data.
system.tol2bus.snoop_filter.tot_requests      1233268                       # Total number of requests made to the snoop filter.
system.tol2bus.snoop_filter.tot_snoops            383                       # Total number of snoops made to the snoop filter.
system.clk_domain.clock                          1000                       # Clock period in ticks
system.cpu.branchPred.lookups                20363228                       # Number of BP lookups
system.cpu.branchPred.condPredicted          16300474                       # Number of conditional branches predicted
system.cpu.branchPred.condIncorrect             54290                       # Number of conditional branches incorrect
system.cpu.branchPred.BTBLookups              8737906                       # Number of BTB lookups
system.cpu.branchPred.BTBHits                 8736504                       # Number of BTB hits
system.cpu.branchPred.BTBHitPct             99.983955                       # BTB Hit Percentage
system.cpu.branchPred.RASUsed                 1050564                       # Number of times the RAS was used to get a target.
system.cpu.branchPred.RASIncorrect                326                       # Number of incorrect RAS predictions.
system.cpu.branchPred.indirectLookups          435265                       # Number of indirect predictor lookups.
system.cpu.branchPred.indirectHits             300028                       # Number of indirect target hits.
system.cpu.branchPred.indirectMisses           135237                       # Number of indirect misses.
system.cpu.branchPred.indirectMispredicted         1051                       # Number of mispredicted indirect branches.
system.cpu.dcache.demand_hits::.cpu.data     35577929                       # number of demand (read+write) hits
system.cpu.dcache.demand_hits::total         35577929                       # number of demand (read+write) hits
system.cpu.dcache.overall_hits::.cpu.data     35581176                       # number of overall hits
system.cpu.dcache.overall_hits::total        35581176                       # number of overall hits
system.cpu.dcache.demand_misses::.cpu.data       108566                       # number of demand (read+write) misses
system.cpu.dcache.demand_misses::total         108566                       # number of demand (read+write) misses
system.cpu.dcache.overall_misses::.cpu.data       108680                       # number of overall misses
system.cpu.dcache.overall_misses::total        108680                       # number of overall misses
system.cpu.dcache.demand_miss_latency::.cpu.data   6999658000                       # number of demand (read+write) miss cycles
system.cpu.dcache.demand_miss_latency::total   6999658000                       # number of demand (read+write) miss cycles
system.cpu.dcache.overall_miss_latency::.cpu.data   6999658000                       # number of overall miss cycles
system.cpu.dcache.overall_miss_latency::total   6999658000                       # number of overall miss cycles
system.cpu.dcache.demand_accesses::.cpu.data     35686495                       # number of demand (read+write) accesses
system.cpu.dcache.demand_accesses::total     35686495                       # number of demand (read+write) accesses
system.cpu.dcache.overall_accesses::.cpu.data     35689856                       # number of overall (read+write) accesses
system.cpu.dcache.overall_accesses::total     35689856                       # number of overall (read+write) accesses
system.cpu.dcache.demand_miss_rate::.cpu.data     0.003042                       # miss rate for demand accesses
system.cpu.dcache.demand_miss_rate::total     0.003042                       # miss rate for demand accesses
system.cpu.dcache.overall_miss_rate::.cpu.data     0.003045                       # miss rate for overall accesses
system.cpu.dcache.overall_miss_rate::total     0.003045                       # miss rate for overall accesses
system.cpu.dcache.demand_avg_miss_latency::.cpu.data 64473.757898                       # average overall miss latency
system.cpu.dcache.demand_avg_miss_latency::total 64473.757898                       # average overall miss latency
system.cpu.dcache.overall_avg_miss_latency::.cpu.data 64406.128082                       # average overall miss latency
system.cpu.dcache.overall_avg_miss_latency::total 64406.128082                       # average overall miss latency
system.cpu.dcache.blocked_cycles::no_mshrs            0                       # number of cycles access was blocked
system.cpu.dcache.blocked_cycles::no_targets            0                       # number of cycles access was blocked
system.cpu.dcache.blocked::no_mshrs                 0                       # number of cycles access was blocked
system.cpu.dcache.blocked::no_targets               0                       # number of cycles access was blocked
system.cpu.dcache.avg_blocked_cycles::no_mshrs          nan                       # average number of cycles each access was blocked
system.cpu.dcache.avg_blocked_cycles::no_targets          nan                       # average number of cycles each access was blocked
system.cpu.dcache.writebacks::.writebacks        65003                       # number of writebacks
system.cpu.dcache.writebacks::total             65003                       # number of writebacks
system.cpu.dcache.demand_mshr_hits::.cpu.data        26836                       # number of demand (read+write) MSHR hits
system.cpu.dcache.demand_mshr_hits::total        26836                       # number of demand (read+write) MSHR hits
system.cpu.dcache.overall_mshr_hits::.cpu.data        26836                       # number of overall MSHR hits
system.cpu.dcache.overall_mshr_hits::total        26836                       # number of overall MSHR hits
system.cpu.dcache.demand_mshr_misses::.cpu.data        81730                       # number of demand (read+write) MSHR misses
system.cpu.dcache.demand_mshr_misses::total        81730                       # number of demand (read+write) MSHR misses
system.cpu.dcache.overall_mshr_misses::.cpu.data        81839                       # number of overall MSHR misses
system.cpu.dcache.overall_mshr_misses::total        81839                       # number of overall MSHR misses
system.cpu.dcache.demand_mshr_miss_latency::.cpu.data   5248948000                       # number of demand (read+write) MSHR miss cycles
system.cpu.dcache.demand_mshr_miss_latency::total   5248948000                       # number of demand (read+write) MSHR miss cycles
system.cpu.dcache.overall_mshr_miss_latency::.cpu.data   5252555000                       # number of overall MSHR miss cycles
system.cpu.dcache.overall_mshr_miss_latency::total   5252555000                       # number of overall MSHR miss cycles
system.cpu.dcache.demand_mshr_miss_rate::.cpu.data     0.002290                       # mshr miss rate for demand accesses
system.cpu.dcache.demand_mshr_miss_rate::total     0.002290                       # mshr miss rate for demand accesses
system.cpu.dcache.overall_mshr_miss_rate::.cpu.data     0.002293                       # mshr miss rate for overall accesses
system.cpu.dcache.overall_mshr_miss_rate::total     0.002293                       # mshr miss rate for overall accesses
system.cpu.dcache.demand_avg_mshr_miss_latency::.cpu.data 64223.027040                       # average overall mshr miss latency
system.cpu.dcache.demand_avg_mshr_miss_latency::total 64223.027040                       # average overall mshr miss latency
system.cpu.dcache.overall_avg_mshr_miss_latency::.cpu.data 64181.563802                       # average overall mshr miss latency
system.cpu.dcache.overall_avg_mshr_miss_latency::total 64181.563802                       # average overall mshr miss latency
system.cpu.dcache.replacements                  81583                       # number of replacements
system.cpu.dcache.ReadReq_hits::.cpu.data     21381201                       # number of ReadReq hits
system.cpu.dcache.ReadReq_hits::total        21381201                       # number of ReadReq hits
system.cpu.dcache.ReadReq_misses::.cpu.data        51026                       # number of ReadReq misses
system.cpu.dcache.ReadReq_misses::total         51026                       # number of ReadReq misses
system.cpu.dcache.ReadReq_miss_latency::.cpu.data   1395553000                       # number of ReadReq miss cycles
system.cpu.dcache.ReadReq_miss_latency::total   1395553000                       # number of ReadReq miss cycles
system.cpu.dcache.ReadReq_accesses::.cpu.data     21432227                       # number of ReadReq accesses(hits+misses)
system.cpu.dcache.ReadReq_accesses::total     21432227                       # number of ReadReq accesses(hits+misses)
system.cpu.dcache.ReadReq_miss_rate::.cpu.data     0.002381                       # miss rate for ReadReq accesses
system.cpu.dcache.ReadReq_miss_rate::total     0.002381                       # miss rate for ReadReq accesses
system.cpu.dcache.ReadReq_avg_miss_latency::.cpu.data 27349.841257                       # average ReadReq miss latency
system.cpu.dcache.ReadReq_avg_miss_latency::total 27349.841257                       # average ReadReq miss latency
system.cpu.dcache.ReadReq_mshr_hits::.cpu.data         9310                       # number of ReadReq MSHR hits
system.cpu.dcache.ReadReq_mshr_hits::total         9310                       # number of ReadReq MSHR hits
system.cpu.dcache.ReadReq_mshr_misses::.cpu.data        41716                       # number of ReadReq MSHR misses
system.cpu.dcache.ReadReq_mshr_misses::total        41716                       # number of ReadReq MSHR misses
system.cpu.dcache.ReadReq_mshr_miss_latency::.cpu.data   1049613000                       # number of ReadReq MSHR miss cycles
system.cpu.dcache.ReadReq_mshr_miss_latency::total   1049613000                       # number of ReadReq MSHR miss cycles
system.cpu.dcache.ReadReq_mshr_miss_rate::.cpu.data     0.001946                       # mshr miss rate for ReadReq accesses
system.cpu.dcache.ReadReq_mshr_miss_rate::total     0.001946                       # mshr miss rate for ReadReq accesses
system.cpu.dcache.ReadReq_avg_mshr_miss_latency::.cpu.data 25160.921469                       # average ReadReq mshr miss latency
system.cpu.dcache.ReadReq_avg_mshr_miss_latency::total 25160.921469                       # average ReadReq mshr miss latency
system.cpu.dcache.WriteReq_hits::.cpu.data     14196728                       # number of WriteReq hits
system.cpu.dcache.WriteReq_hits::total       14196728                       # number of WriteReq hits
system.cpu.dcache.WriteReq_misses::.cpu.data        57540                       # number of WriteReq misses
system.cpu.dcache.WriteReq_misses::total        57540                       # number of WriteReq misses
system.cpu.dcache.WriteReq_miss_latency::.cpu.data   5604105000                       # number of WriteReq miss cycles
system.cpu.dcache.WriteReq_miss_latency::total   5604105000                       # number of WriteReq miss cycles
system.cpu.dcache.WriteReq_accesses::.cpu.data     14254268                       # number of WriteReq accesses(hits+misses)
system.cpu.dcache.WriteReq_accesses::total     14254268                       # number of WriteReq accesses(hits+misses)
system.cpu.dcache.WriteReq_miss_rate::.cpu.data     0.004037                       # miss rate for WriteReq accesses
system.cpu.dcache.WriteReq_miss_rate::total     0.004037                       # miss rate for WriteReq accesses
system.cpu.dcache.WriteReq_avg_miss_latency::.cpu.data 97394.942649                       # average WriteReq miss latency
system.cpu.dcache.WriteReq_avg_miss_latency::total 97394.942649                       # average WriteReq miss latency
system.cpu.dcache.WriteReq_mshr_hits::.cpu.data        17526                       # number of WriteReq MSHR hits
system.cpu.dcache.WriteReq_mshr_hits::total        17526                       # number of WriteReq MSHR hits
system.cpu.dcache.WriteReq_mshr_misses::.cpu.data        40014                       # number of WriteReq MSHR misses
system.cpu.dcache.WriteReq_mshr_misses::total        40014                       # number of WriteReq MSHR misses
system.cpu.dcache.WriteReq_mshr_miss_latency::.cpu.data   4199335000                       # number of WriteReq MSHR miss cycles
system.cpu.dcache.WriteReq_mshr_miss_latency::total   4199335000                       # number of WriteReq MSHR miss cycles
system.cpu.dcache.WriteReq_mshr_miss_rate::.cpu.data     0.002807                       # mshr miss rate for WriteReq accesses
system.cpu.dcache.WriteReq_mshr_miss_rate::total     0.002807                       # mshr miss rate for WriteReq accesses
system.cpu.dcache.WriteReq_avg_mshr_miss_latency::.cpu.data 104946.643675                       # average WriteReq mshr miss latency
system.cpu.dcache.WriteReq_avg_mshr_miss_latency::total 104946.643675                       # average WriteReq mshr miss latency
system.cpu.dcache.SoftPFReq_hits::.cpu.data         3247                       # number of SoftPFReq hits
system.cpu.dcache.SoftPFReq_hits::total          3247                       # number of SoftPFReq hits
system.cpu.dcache.SoftPFReq_misses::.cpu.data          114                       # number of SoftPFReq misses
system.cpu.dcache.SoftPFReq_misses::total          114                       # number of SoftPFReq misses
system.cpu.dcache.SoftPFReq_accesses::.cpu.data         3361                       # number of SoftPFReq accesses(hits+misses)
system.cpu.dcache.SoftPFReq_accesses::total         3361                       # number of SoftPFReq accesses(hits+misses)
system.cpu.dcache.SoftPFReq_miss_rate::.cpu.data     0.033918                       # miss rate for SoftPFReq accesses
system.cpu.dcache.SoftPFReq_miss_rate::total     0.033918                       # miss rate for SoftPFReq accesses
system.cpu.dcache.SoftPFReq_mshr_misses::.cpu.data          109                       # number of SoftPFReq MSHR misses
system.cpu.dcache.SoftPFReq_mshr_misses::total          109                       # number of SoftPFReq MSHR misses
system.cpu.dcache.SoftPFReq_mshr_miss_latency::.cpu.data      3607000                       # number of SoftPFReq MSHR miss cycles
system.cpu.dcache.SoftPFReq_mshr_miss_latency::total      3607000                       # number of SoftPFReq MSHR miss cycles
system.cpu.dcache.SoftPFReq_mshr_miss_rate::.cpu.data     0.032431                       # mshr miss rate for SoftPFReq accesses
system.cpu.dcache.SoftPFReq_mshr_miss_rate::total     0.032431                       # mshr miss rate for SoftPFReq accesses
system.cpu.dcache.SoftPFReq_avg_mshr_miss_latency::.cpu.data 33091.743119                       # average SoftPFReq mshr miss latency
system.cpu.dcache.SoftPFReq_avg_mshr_miss_latency::total 33091.743119                       # average SoftPFReq mshr miss latency
system.cpu.dcache.LoadLockedReq_hits::.cpu.data        89080                       # number of LoadLockedReq hits
system.cpu.dcache.LoadLockedReq_hits::total        89080                       # number of LoadLockedReq hits
system.cpu.dcache.LoadLockedReq_accesses::.cpu.data        89080                       # number of LoadLockedReq accesses(hits+misses)
system.cpu.dcache.LoadLockedReq_accesses::total        89080                       # number of LoadLockedReq accesses(hits+misses)
system.cpu.dcache.StoreCondReq_hits::.cpu.data        89080                       # number of StoreCondReq hits
system.cpu.dcache.StoreCondReq_hits::total        89080                       # number of StoreCondReq hits
system.cpu.dcache.StoreCondReq_accesses::.cpu.data        89080                       # number of StoreCondReq accesses(hits+misses)
system.cpu.dcache.StoreCondReq_accesses::total        89080                       # number of StoreCondReq accesses(hits+misses)
system.cpu.dcache.power_state.pwrStateResidencyTicks::UNDEFINED 123825220000                       # Cumulative time (in ticks) in various power states
system.cpu.dcache.tags.tagsinuse           255.820386                       # Cycle average of tags in use
system.cpu.dcache.tags.total_refs            35841175                       # Total number of references to valid blocks.
system.cpu.dcache.tags.sampled_refs             81839                       # Sample count of references to valid blocks.
system.cpu.dcache.tags.avg_refs            437.947372                       # Average number of references to valid blocks.
system.cpu.dcache.tags.warmup_cycle            223000                       # Cycle when the warmup percentage was hit.
system.cpu.dcache.tags.occ_blocks::.cpu.data   255.820386                       # Average occupied blocks per requestor
system.cpu.dcache.tags.occ_percent::.cpu.data     0.999298                       # Average percentage of cache occupancy
system.cpu.dcache.tags.occ_percent::total     0.999298                       # Average percentage of cache occupancy
system.cpu.dcache.tags.occ_task_id_blocks::1024          256                       # Occupied blocks per task id
system.cpu.dcache.tags.age_task_id_blocks_1024::0            3                       # Occupied blocks per task id
system.cpu.dcache.tags.age_task_id_blocks_1024::1           39                       # Occupied blocks per task id
system.cpu.dcache.tags.age_task_id_blocks_1024::2          178                       # Occupied blocks per task id
system.cpu.dcache.tags.age_task_id_blocks_1024::3           17                       # Occupied blocks per task id
system.cpu.dcache.tags.age_task_id_blocks_1024::4           19                       # Occupied blocks per task id
system.cpu.dcache.tags.occ_task_id_percent::1024            1                       # Percentage of cache occupancy per task id
system.cpu.dcache.tags.tag_accesses          71817871                       # Number of tag accesses
system.cpu.dcache.tags.data_accesses         71817871                       # Number of data accesses
system.cpu.dcache.tags.power_state.pwrStateResidencyTicks::UNDEFINED 123825220000                       # Cumulative time (in ticks) in various power states
system.cpu.dtb.instHits                             0                       # ITB inst hits
system.cpu.dtb.instMisses                           0                       # ITB inst misses
system.cpu.dtb.readHits                             0                       # DTB read hits
system.cpu.dtb.readMisses                           0                       # DTB read misses
system.cpu.dtb.writeHits                            0                       # DTB write hits
system.cpu.dtb.writeMisses                          0                       # DTB write misses
system.cpu.dtb.inserts                              0                       # Number of times an entry is inserted into the TLB
system.cpu.dtb.flushTlb                             0                       # Number of times complete TLB was flushed
system.cpu.dtb.flushTlbMva                          0                       # Number of times TLB was flushed by MVA
system.cpu.dtb.flushTlbMvaAsid                      0                       # Number of times TLB was flushed by MVA & ASID
system.cpu.dtb.flushTlbAsid                         0                       # Number of times TLB was flushed by ASID
system.cpu.dtb.flushedEntries                       0                       # Number of entries that have been flushed from TLB
system.cpu.dtb.alignFaults                          0                       # Number of TLB faults due to alignment restrictions
system.cpu.dtb.prefetchFaults                       0                       # Number of TLB faults due to prefetch
system.cpu.dtb.domainFaults                         0                       # Number of TLB faults due to domain restrictions
system.cpu.dtb.permsFaults                          0                       # Number of TLB faults due to permissions restrictions
system.cpu.dtb.readAccesses                         0                       # DTB read accesses
system.cpu.dtb.writeAccesses                        0                       # DTB write accesses
system.cpu.dtb.instAccesses                         0                       # ITB inst accesses
system.cpu.dtb.hits                                 0                       # Total TLB (inst and data) hits
system.cpu.dtb.misses                               0                       # Total TLB (inst and data) misses
system.cpu.dtb.accesses                             0                       # Total TLB (inst and data) accesses
system.cpu.dtb.stage2_mmu.stage2_tlb.instHits            0                       # ITB inst hits
system.cpu.dtb.stage2_mmu.stage2_tlb.instMisses            0                       # ITB inst misses
system.cpu.dtb.stage2_mmu.stage2_tlb.readHits            0                       # DTB read hits
system.cpu.dtb.stage2_mmu.stage2_tlb.readMisses            0                       # DTB read misses
system.cpu.dtb.stage2_mmu.stage2_tlb.writeHits            0                       # DTB write hits
system.cpu.dtb.stage2_mmu.stage2_tlb.writeMisses            0                       # DTB write misses
system.cpu.dtb.stage2_mmu.stage2_tlb.inserts            0                       # Number of times an entry is inserted into the TLB
system.cpu.dtb.stage2_mmu.stage2_tlb.flushTlb            0                       # Number of times complete TLB was flushed
system.cpu.dtb.stage2_mmu.stage2_tlb.flushTlbMva            0                       # Number of times TLB was flushed by MVA
system.cpu.dtb.stage2_mmu.stage2_tlb.flushTlbMvaAsid            0                       # Number of times TLB was flushed by MVA & ASID
system.cpu.dtb.stage2_mmu.stage2_tlb.flushTlbAsid            0                       # Number of times TLB was flushed by ASID
system.cpu.dtb.stage2_mmu.stage2_tlb.flushedEntries            0                       # Number of entries that have been flushed from TLB
system.cpu.dtb.stage2_mmu.stage2_tlb.alignFaults            0                       # Number of TLB faults due to alignment restrictions
system.cpu.dtb.stage2_mmu.stage2_tlb.prefetchFaults            0                       # Number of TLB faults due to prefetch
system.cpu.dtb.stage2_mmu.stage2_tlb.domainFaults            0                       # Number of TLB faults due to domain restrictions
system.cpu.dtb.stage2_mmu.stage2_tlb.permsFaults            0                       # Number of TLB faults due to permissions restrictions
system.cpu.dtb.stage2_mmu.stage2_tlb.readAccesses            0                       # DTB read accesses
system.cpu.dtb.stage2_mmu.stage2_tlb.writeAccesses            0                       # DTB write accesses
system.cpu.dtb.stage2_mmu.stage2_tlb.instAccesses            0                       # ITB inst accesses
system.cpu.dtb.stage2_mmu.stage2_tlb.hits            0                       # Total TLB (inst and data) hits
system.cpu.dtb.stage2_mmu.stage2_tlb.misses            0                       # Total TLB (inst and data) misses
system.cpu.dtb.stage2_mmu.stage2_tlb.accesses            0                       # Total TLB (inst and data) accesses
system.cpu.dtb.stage2_mmu.stage2_tlb.walker.walks            0                       # Table walker walks requested
system.cpu.dtb.stage2_mmu.stage2_tlb.walker.requestOrigin_Requested::Data            0                       # Table walker requests started/completed, data/inst
system.cpu.dtb.stage2_mmu.stage2_tlb.walker.requestOrigin_Requested::Inst            0                       # Table walker requests started/completed, data/inst
system.cpu.dtb.stage2_mmu.stage2_tlb.walker.requestOrigin_Requested::total            0                       # Table walker requests started/completed, data/inst
system.cpu.dtb.stage2_mmu.stage2_tlb.walker.requestOrigin_Completed::Data            0                       # Table walker requests started/completed, data/inst
system.cpu.dtb.stage2_mmu.stage2_tlb.walker.requestOrigin_Completed::Inst            0                       # Table walker requests started/completed, data/inst
system.cpu.dtb.stage2_mmu.stage2_tlb.walker.requestOrigin_Completed::total            0                       # Table walker requests started/completed, data/inst
system.cpu.dtb.stage2_mmu.stage2_tlb.walker.requestOrigin::total            0                       # Table walker requests started/completed, data/inst
system.cpu.dtb.stage2_mmu.stage2_tlb.walker.power_state.pwrStateResidencyTicks::UNDEFINED 123825220000                       # Cumulative time (in ticks) in various power states
system.cpu.dtb.walker.walks                         0                       # Table walker walks requested
system.cpu.dtb.walker.requestOrigin_Requested::Data            0                       # Table walker requests started/completed, data/inst
system.cpu.dtb.walker.requestOrigin_Requested::Inst            0                       # Table walker requests started/completed, data/inst
system.cpu.dtb.walker.requestOrigin_Requested::total            0                       # Table walker requests started/completed, data/inst
system.cpu.dtb.walker.requestOrigin_Completed::Data            0                       # Table walker requests started/completed, data/inst
system.cpu.dtb.walker.requestOrigin_Completed::Inst            0                       # Table walker requests started/completed, data/inst
system.cpu.dtb.walker.requestOrigin_Completed::total            0                       # Table walker requests started/completed, data/inst
system.cpu.dtb.walker.requestOrigin::total            0                       # Table walker requests started/completed, data/inst
system.cpu.dtb.walker.power_state.pwrStateResidencyTicks::UNDEFINED 123825220000                       # Cumulative time (in ticks) in various power states
system.cpu.fetch2.intInstructions            49069747                       # Number of integer instructions successfully decoded
system.cpu.fetch2.fpInstructions                    0                       # Number of floating point instructions successfully decoded
system.cpu.fetch2.vecInstructions                   0                       # Number of SIMD instructions successfully decoded
system.cpu.fetch2.loadInstructions           17106543                       # Number of memory load instructions successfully decoded
system.cpu.fetch2.storeInstructions           9763911                       # Number of memory store instructions successfully decoded
system.cpu.fetch2.amoInstructions                   0                       # Number of memory atomic instructions successfully decoded
system.cpu.icache.demand_hits::.cpu.inst     27564445                       # number of demand (read+write) hits
system.cpu.icache.demand_hits::total         27564445                       # number of demand (read+write) hits
system.cpu.icache.overall_hits::.cpu.inst     27564445                       # number of overall hits
system.cpu.icache.overall_hits::total        27564445                       # number of overall hits
system.cpu.icache.demand_misses::.cpu.inst       535124                       # number of demand (read+write) misses
system.cpu.icache.demand_misses::total         535124                       # number of demand (read+write) misses
system.cpu.icache.overall_misses::.cpu.inst       535124                       # number of overall misses
system.cpu.icache.overall_misses::total        535124                       # number of overall misses
system.cpu.icache.demand_miss_latency::.cpu.inst  13957705000                       # number of demand (read+write) miss cycles
system.cpu.icache.demand_miss_latency::total  13957705000                       # number of demand (read+write) miss cycles
system.cpu.icache.overall_miss_latency::.cpu.inst  13957705000                       # number of overall miss cycles
system.cpu.icache.overall_miss_latency::total  13957705000                       # number of overall miss cycles
system.cpu.icache.demand_accesses::.cpu.inst     28099569                       # number of demand (read+write) accesses
system.cpu.icache.demand_accesses::total     28099569                       # number of demand (read+write) accesses
system.cpu.icache.overall_accesses::.cpu.inst     28099569                       # number of overall (read+write) accesses
system.cpu.icache.overall_accesses::total     28099569                       # number of overall (read+write) accesses
system.cpu.icache.demand_miss_rate::.cpu.inst     0.019044                       # miss rate for demand accesses
system.cpu.icache.demand_miss_rate::total     0.019044                       # miss rate for demand accesses
system.cpu.icache.overall_miss_rate::.cpu.inst     0.019044                       # miss rate for overall accesses
system.cpu.icache.overall_miss_rate::total     0.019044                       # miss rate for overall accesses
system.cpu.icache.demand_avg_miss_latency::.cpu.inst 26083.122790                       # average overall miss latency
system.cpu.icache.demand_avg_miss_latency::total 26083.122790                       # average overall miss latency
system.cpu.icache.overall_avg_miss_latency::.cpu.inst 26083.122790                       # average overall miss latency
system.cpu.icache.overall_avg_miss_latency::total 26083.122790                       # average overall miss latency
system.cpu.icache.blocked_cycles::no_mshrs            0                       # number of cycles access was blocked
system.cpu.icache.blocked_cycles::no_targets            0                       # number of cycles access was blocked
system.cpu.icache.blocked::no_mshrs                 0                       # number of cycles access was blocked
system.cpu.icache.blocked::no_targets               0                       # number of cycles access was blocked
system.cpu.icache.avg_blocked_cycles::no_mshrs          nan                       # average number of cycles each access was blocked
system.cpu.icache.avg_blocked_cycles::no_targets          nan                       # average number of cycles each access was blocked
system.cpu.icache.writebacks::.writebacks       534722                       # number of writebacks
system.cpu.icache.writebacks::total            534722                       # number of writebacks
system.cpu.icache.demand_mshr_misses::.cpu.inst       535124                       # number of demand (read+write) MSHR misses
system.cpu.icache.demand_mshr_misses::total       535124                       # number of demand (read+write) MSHR misses
system.cpu.icache.overall_mshr_misses::.cpu.inst       535124                       # number of overall MSHR misses
system.cpu.icache.overall_mshr_misses::total       535124                       # number of overall MSHR misses
system.cpu.icache.demand_mshr_miss_latency::.cpu.inst  12887457000                       # number of demand (read+write) MSHR miss cycles
system.cpu.icache.demand_mshr_miss_latency::total  12887457000                       # number of demand (read+write) MSHR miss cycles
system.cpu.icache.overall_mshr_miss_latency::.cpu.inst  12887457000                       # number of overall MSHR miss cycles
system.cpu.icache.overall_mshr_miss_latency::total  12887457000                       # number of overall MSHR miss cycles
system.cpu.icache.demand_mshr_miss_rate::.cpu.inst     0.019044                       # mshr miss rate for demand accesses
system.cpu.icache.demand_mshr_miss_rate::total     0.019044                       # mshr miss rate for demand accesses
system.cpu.icache.overall_mshr_miss_rate::.cpu.inst     0.019044                       # mshr miss rate for overall accesses
system.cpu.icache.overall_mshr_miss_rate::total     0.019044                       # mshr miss rate for overall accesses
system.cpu.icache.demand_avg_mshr_miss_latency::.cpu.inst 24083.122790                       # average overall mshr miss latency
system.cpu.icache.demand_avg_mshr_miss_latency::total 24083.122790                       # average overall mshr miss latency
system.cpu.icache.overall_avg_mshr_miss_latency::.cpu.inst 24083.122790                       # average overall mshr miss latency
system.cpu.icache.overall_avg_mshr_miss_latency::total 24083.122790                       # average overall mshr miss latency
system.cpu.icache.replacements                 534722                       # number of replacements
system.cpu.icache.ReadReq_hits::.cpu.inst     27564445                       # number of ReadReq hits
system.cpu.icache.ReadReq_hits::total        27564445                       # number of ReadReq hits
system.cpu.icache.ReadReq_misses::.cpu.inst       535124                       # number of ReadReq misses
system.cpu.icache.ReadReq_misses::total        535124                       # number of ReadReq misses
system.cpu.icache.ReadReq_miss_latency::.cpu.inst  13957705000                       # number of ReadReq miss cycles
system.cpu.icache.ReadReq_miss_latency::total  13957705000                       # number of ReadReq miss cycles
system.cpu.icache.ReadReq_accesses::.cpu.inst     28099569                       # number of ReadReq accesses(hits+misses)
system.cpu.icache.ReadReq_accesses::total     28099569                       # number of ReadReq accesses(hits+misses)
system.cpu.icache.ReadReq_miss_rate::.cpu.inst     0.019044                       # miss rate for ReadReq accesses
system.cpu.icache.ReadReq_miss_rate::total     0.019044                       # miss rate for ReadReq accesses
system.cpu.icache.ReadReq_avg_miss_latency::.cpu.inst 26083.122790                       # average ReadReq miss latency
system.cpu.icache.ReadReq_avg_miss_latency::total 26083.122790                       # average ReadReq miss latency
system.cpu.icache.ReadReq_mshr_misses::.cpu.inst       535124                       # number of ReadReq MSHR misses
system.cpu.icache.ReadReq_mshr_misses::total       535124                       # number of ReadReq MSHR misses
system.cpu.icache.ReadReq_mshr_miss_latency::.cpu.inst  12887457000                       # number of ReadReq MSHR miss cycles
system.cpu.icache.ReadReq_mshr_miss_latency::total  12887457000                       # number of ReadReq MSHR miss cycles
system.cpu.icache.ReadReq_mshr_miss_rate::.cpu.inst     0.019044                       # mshr miss rate for ReadReq accesses
system.cpu.icache.ReadReq_mshr_miss_rate::total     0.019044                       # mshr miss rate for ReadReq accesses
system.cpu.icache.ReadReq_avg_mshr_miss_latency::.cpu.inst 24083.122790                       # average ReadReq mshr miss latency
system.cpu.icache.ReadReq_avg_mshr_miss_latency::total 24083.122790                       # average ReadReq mshr miss latency
system.cpu.icache.power_state.pwrStateResidencyTicks::UNDEFINED 123825220000                       # Cumulative time (in ticks) in various power states
system.cpu.icache.tags.tagsinuse           401.833506                       # Cycle average of tags in use
system.cpu.icache.tags.total_refs            28099569                       # Total number of references to valid blocks.
system.cpu.icache.tags.sampled_refs            535124                       # Sample count of references to valid blocks.
system.cpu.icache.tags.avg_refs             52.510388                       # Average number of references to valid blocks.
system.cpu.icache.tags.warmup_cycle            108000                       # Cycle when the warmup percentage was hit.
system.cpu.icache.tags.occ_blocks::.cpu.inst   401.833506                       # Average occupied blocks per requestor
system.cpu.icache.tags.occ_percent::.cpu.inst     0.784831                       # Average percentage of cache occupancy
system.cpu.icache.tags.occ_percent::total     0.784831                       # Average percentage of cache occupancy
system.cpu.icache.tags.occ_task_id_blocks::1024          402                       # Occupied blocks per task id
system.cpu.icache.tags.age_task_id_blocks_1024::0            8                       # Occupied blocks per task id
system.cpu.icache.tags.age_task_id_blocks_1024::3            3                       # Occupied blocks per task id
system.cpu.icache.tags.age_task_id_blocks_1024::4          391                       # Occupied blocks per task id
system.cpu.icache.tags.occ_task_id_percent::1024     0.785156                       # Percentage of cache occupancy per task id
system.cpu.icache.tags.tag_accesses          56734262                       # Number of tag accesses
system.cpu.icache.tags.data_accesses         56734262                       # Number of data accesses
system.cpu.icache.tags.power_state.pwrStateResidencyTicks::UNDEFINED 123825220000                       # Cumulative time (in ticks) in various power states
system.cpu.itb.instHits                             0                       # ITB inst hits
system.cpu.itb.instMisses                           0                       # ITB inst misses
system.cpu.itb.readHits                             0                       # DTB read hits
system.cpu.itb.readMisses                           0                       # DTB read misses
system.cpu.itb.writeHits                            0                       # DTB write hits
system.cpu.itb.writeMisses                          0                       # DTB write misses
system.cpu.itb.inserts                              0                       # Number of times an entry is inserted into the TLB
system.cpu.itb.flushTlb                             0                       # Number of times complete TLB was flushed
system.cpu.itb.flushTlbMva                          0                       # Number of times TLB was flushed by MVA
system.cpu.itb.flushTlbMvaAsid                      0                       # Number of times TLB was flushed by MVA & ASID
system.cpu.itb.flushTlbAsid                         0                       # Number of times TLB was flushed by ASID
system.cpu.itb.flushedEntries                       0                       # Number of entries that have been flushed from TLB
system.cpu.itb.alignFaults                          0                       # Number of TLB faults due to alignment restrictions
system.cpu.itb.prefetchFaults                       0                       # Number of TLB faults due to prefetch
system.cpu.itb.domainFaults                         0                       # Number of TLB faults due to domain restrictions
system.cpu.itb.permsFaults                          0                       # Number of TLB faults due to permissions restrictions
system.cpu.itb.readAccesses                         0                       # DTB read accesses
system.cpu.itb.writeAccesses                        0                       # DTB write accesses
system.cpu.itb.instAccesses                         0                       # ITB inst accesses
system.cpu.itb.hits                                 0                       # Total TLB (inst and data) hits
system.cpu.itb.misses                               0                       # Total TLB (inst and data) misses
system.cpu.itb.accesses                             0                       # Total TLB (inst and data) accesses
system.cpu.itb.stage2_mmu.stage2_tlb.instHits            0                       # ITB inst hits
system.cpu.itb.stage2_mmu.stage2_tlb.instMisses            0                       # ITB inst misses
system.cpu.itb.stage2_mmu.stage2_tlb.readHits            0                       # DTB read hits
system.cpu.itb.stage2_mmu.stage2_tlb.readMisses            0                       # DTB read misses
system.cpu.itb.stage2_mmu.stage2_tlb.writeHits            0                       # DTB write hits
system.cpu.itb.stage2_mmu.stage2_tlb.writeMisses            0                       # DTB write misses
system.cpu.itb.stage2_mmu.stage2_tlb.inserts            0                       # Number of times an entry is inserted into the TLB
system.cpu.itb.stage2_mmu.stage2_tlb.flushTlb            0                       # Number of times complete TLB was flushed
system.cpu.itb.stage2_mmu.stage2_tlb.flushTlbMva            0                       # Number of times TLB was flushed by MVA
system.cpu.itb.stage2_mmu.stage2_tlb.flushTlbMvaAsid            0                       # Number of times TLB was flushed by MVA & ASID
system.cpu.itb.stage2_mmu.stage2_tlb.flushTlbAsid            0                       # Number of times TLB was flushed by ASID
system.cpu.itb.stage2_mmu.stage2_tlb.flushedEntries            0                       # Number of entries that have been flushed from TLB
system.cpu.itb.stage2_mmu.stage2_tlb.alignFaults            0                       # Number of TLB faults due to alignment restrictions
system.cpu.itb.stage2_mmu.stage2_tlb.prefetchFaults            0                       # Number of TLB faults due to prefetch
system.cpu.itb.stage2_mmu.stage2_tlb.domainFaults            0                       # Number of TLB faults due to domain restrictions
system.cpu.itb.stage2_mmu.stage2_tlb.permsFaults            0                       # Number of TLB faults due to permissions restrictions
system.cpu.itb.stage2_mmu.stage2_tlb.readAccesses            0                       # DTB read accesses
system.cpu.itb.stage2_mmu.stage2_tlb.writeAccesses            0                       # DTB write accesses
system.cpu.itb.stage2_mmu.stage2_tlb.instAccesses            0                       # ITB inst accesses
system.cpu.itb.stage2_mmu.stage2_tlb.hits            0                       # Total TLB (inst and data) hits
system.cpu.itb.stage2_mmu.stage2_tlb.misses            0                       # Total TLB (inst and data) misses
system.cpu.itb.stage2_mmu.stage2_tlb.accesses            0                       # Total TLB (inst and data) accesses
system.cpu.itb.stage2_mmu.stage2_tlb.walker.walks            0                       # Table walker walks requested
system.cpu.itb.stage2_mmu.stage2_tlb.walker.requestOrigin_Requested::Data            0                       # Table walker requests started/completed, data/inst
system.cpu.itb.stage2_mmu.stage2_tlb.walker.requestOrigin_Requested::Inst            0                       # Table walker requests started/completed, data/inst
system.cpu.itb.stage2_mmu.stage2_tlb.walker.requestOrigin_Requested::total            0                       # Table walker requests started/completed, data/inst
system.cpu.itb.stage2_mmu.stage2_tlb.walker.requestOrigin_Completed::Data            0                       # Table walker requests started/completed, data/inst
system.cpu.itb.stage2_mmu.stage2_tlb.walker.requestOrigin_Completed::Inst            0                       # Table walker requests started/completed, data/inst
system.cpu.itb.stage2_mmu.stage2_tlb.walker.requestOrigin_Completed::total            0                       # Table walker requests started/completed, data/inst
system.cpu.itb.stage2_mmu.stage2_tlb.walker.requestOrigin::total            0                       # Table walker requests started/completed, data/inst
system.cpu.itb.stage2_mmu.stage2_tlb.walker.power_state.pwrStateResidencyTicks::UNDEFINED 123825220000                       # Cumulative time (in ticks) in various power states
system.cpu.itb.walker.walks                         0                       # Table walker walks requested
system.cpu.itb.walker.requestOrigin_Requested::Data            0                       # Table walker requests started/completed, data/inst
system.cpu.itb.walker.requestOrigin_Requested::Inst            0                       # Table walker requests started/completed, data/inst
system.cpu.itb.walker.requestOrigin_Requested::total            0                       # Table walker requests started/completed, data/inst
system.cpu.itb.walker.requestOrigin_Completed::Data            0                       # Table walker requests started/completed, data/inst
system.cpu.itb.walker.requestOrigin_Completed::Inst            0                       # Table walker requests started/completed, data/inst
system.cpu.itb.walker.requestOrigin_Completed::total            0                       # Table walker requests started/completed, data/inst
system.cpu.itb.walker.requestOrigin::total            0                       # Table walker requests started/completed, data/inst
system.cpu.itb.walker.power_state.pwrStateResidencyTicks::UNDEFINED 123825220000                       # Cumulative time (in ticks) in various power states
system.cpu.power_state.pwrStateResidencyTicks::ON 123825220000                       # Cumulative time (in ticks) in various power states
system.cpu.thread17522.numInsts             100000001                       # Number of Instructions committed
system.cpu.thread17522.numOps               109431277                       # Number of Ops committed
system.cpu.thread17522.numMemRefs                   0                       # Number of Memory References
system.cpu_clk_domain.clock                      1000                       # Clock period in ticks
system.cpu_voltage_domain.voltage                   1                       # Voltage in Volts
system.l2.demand_hits::.cpu.inst               534601                       # number of demand (read+write) hits
system.l2.demand_hits::.cpu.data                42497                       # number of demand (read+write) hits
system.l2.demand_hits::total                   577098                       # number of demand (read+write) hits
system.l2.overall_hits::.cpu.inst              534601                       # number of overall hits
system.l2.overall_hits::.cpu.data               42497                       # number of overall hits
system.l2.overall_hits::total                  577098                       # number of overall hits
system.l2.demand_misses::.cpu.inst                523                       # number of demand (read+write) misses
system.l2.demand_misses::.cpu.data              39342                       # number of demand (read+write) misses
system.l2.demand_misses::total                  39865                       # number of demand (read+write) misses
system.l2.overall_misses::.cpu.inst               523                       # number of overall misses
system.l2.overall_misses::.cpu.data             39342                       # number of overall misses
system.l2.overall_misses::total                 39865                       # number of overall misses
system.l2.demand_miss_latency::.cpu.inst     50846000                       # number of demand (read+write) miss cycles
system.l2.demand_miss_latency::.cpu.data   4110055000                       # number of demand (read+write) miss cycles
system.l2.demand_miss_latency::total       4160901000                       # number of demand (read+write) miss cycles
system.l2.overall_miss_latency::.cpu.inst     50846000                       # number of overall miss cycles
system.l2.overall_miss_latency::.cpu.data   4110055000                       # number of overall miss cycles
system.l2.overall_miss_latency::total      4160901000                       # number of overall miss cycles
system.l2.demand_accesses::.cpu.inst           535124                       # number of demand (read+write) accesses
system.l2.demand_accesses::.cpu.data            81839                       # number of demand (read+write) accesses
system.l2.demand_accesses::total               616963                       # number of demand (read+write) accesses
system.l2.overall_accesses::.cpu.inst          535124                       # number of overall (read+write) accesses
system.l2.overall_accesses::.cpu.data           81839                       # number of overall (read+write) accesses
system.l2.overall_accesses::total              616963                       # number of overall (read+write) accesses
system.l2.demand_miss_rate::.cpu.inst        0.000977                       # miss rate for demand accesses
system.l2.demand_miss_rate::.cpu.data        0.480724                       # miss rate for demand accesses
system.l2.demand_miss_rate::total            0.064615                       # miss rate for demand accesses
system.l2.overall_miss_rate::.cpu.inst       0.000977                       # miss rate for overall accesses
system.l2.overall_miss_rate::.cpu.data       0.480724                       # miss rate for overall accesses
system.l2.overall_miss_rate::total           0.064615                       # miss rate for overall accesses
system.l2.demand_avg_miss_latency::.cpu.inst 97219.885277                       # average overall miss latency
system.l2.demand_avg_miss_latency::.cpu.data 104469.904936                       # average overall miss latency
system.l2.demand_avg_miss_latency::total 104374.789916                       # average overall miss latency
system.l2.overall_avg_miss_latency::.cpu.inst 97219.885277                       # average overall miss latency
system.l2.overall_avg_miss_latency::.cpu.data 104469.904936                       # average overall miss latency
system.l2.overall_avg_miss_latency::total 104374.789916                       # average overall miss latency
system.l2.blocked_cycles::no_mshrs                  0                       # number of cycles access was blocked
system.l2.blocked_cycles::no_targets                0                       # number of cycles access was blocked
system.l2.blocked::no_mshrs                         0                       # number of cycles access was blocked
system.l2.blocked::no_targets                       0                       # number of cycles access was blocked
system.l2.avg_blocked_cycles::no_mshrs            nan                       # average number of cycles each access was blocked
system.l2.avg_blocked_cycles::no_targets          nan                       # average number of cycles each access was blocked
system.l2.writebacks::.writebacks                6536                       # number of writebacks
system.l2.writebacks::total                      6536                       # number of writebacks
system.l2.demand_mshr_hits::.cpu.inst               1                       # number of demand (read+write) MSHR hits
system.l2.demand_mshr_hits::.cpu.data               5                       # number of demand (read+write) MSHR hits
system.l2.demand_mshr_hits::total                   6                       # number of demand (read+write) MSHR hits
system.l2.overall_mshr_hits::.cpu.inst              1                       # number of overall MSHR hits
system.l2.overall_mshr_hits::.cpu.data              5                       # number of overall MSHR hits
system.l2.overall_mshr_hits::total                  6                       # number of overall MSHR hits
system.l2.demand_mshr_misses::.cpu.inst           522                       # number of demand (read+write) MSHR misses
system.l2.demand_mshr_misses::.cpu.data         39337                       # number of demand (read+write) MSHR misses
system.l2.demand_mshr_misses::total             39859                       # number of demand (read+write) MSHR misses
system.l2.overall_mshr_misses::.cpu.inst          522                       # number of overall MSHR misses
system.l2.overall_mshr_misses::.cpu.data        39337                       # number of overall MSHR misses
system.l2.overall_mshr_misses::total            39859                       # number of overall MSHR misses
system.l2.demand_mshr_miss_latency::.cpu.inst     40326000                       # number of demand (read+write) MSHR miss cycles
system.l2.demand_mshr_miss_latency::.cpu.data   3322909000                       # number of demand (read+write) MSHR miss cycles
system.l2.demand_mshr_miss_latency::total   3363235000                       # number of demand (read+write) MSHR miss cycles
system.l2.overall_mshr_miss_latency::.cpu.inst     40326000                       # number of overall MSHR miss cycles
system.l2.overall_mshr_miss_latency::.cpu.data   3322909000                       # number of overall MSHR miss cycles
system.l2.overall_mshr_miss_latency::total   3363235000                       # number of overall MSHR miss cycles
system.l2.demand_mshr_miss_rate::.cpu.inst     0.000975                       # mshr miss rate for demand accesses
system.l2.demand_mshr_miss_rate::.cpu.data     0.480663                       # mshr miss rate for demand accesses
system.l2.demand_mshr_miss_rate::total       0.064605                       # mshr miss rate for demand accesses
system.l2.overall_mshr_miss_rate::.cpu.inst     0.000975                       # mshr miss rate for overall accesses
system.l2.overall_mshr_miss_rate::.cpu.data     0.480663                       # mshr miss rate for overall accesses
system.l2.overall_mshr_miss_rate::total      0.064605                       # mshr miss rate for overall accesses
system.l2.demand_avg_mshr_miss_latency::.cpu.inst 77252.873563                       # average overall mshr miss latency
system.l2.demand_avg_mshr_miss_latency::.cpu.data 84472.862699                       # average overall mshr miss latency
system.l2.demand_avg_mshr_miss_latency::total 84378.308538                       # average overall mshr miss latency
system.l2.overall_avg_mshr_miss_latency::.cpu.inst 77252.873563                       # average overall mshr miss latency
system.l2.overall_avg_mshr_miss_latency::.cpu.data 84472.862699                       # average overall mshr miss latency
system.l2.overall_avg_mshr_miss_latency::total 84378.308538                       # average overall mshr miss latency
system.l2.replacements                           7094                       # number of replacements
system.l2.WritebackDirty_hits::.writebacks        65003                       # number of WritebackDirty hits
system.l2.WritebackDirty_hits::total            65003                       # number of WritebackDirty hits
system.l2.WritebackDirty_accesses::.writebacks        65003                       # number of WritebackDirty accesses(hits+misses)
system.l2.WritebackDirty_accesses::total        65003                       # number of WritebackDirty accesses(hits+misses)
system.l2.WritebackClean_hits::.writebacks       534715                       # number of WritebackClean hits
system.l2.WritebackClean_hits::total           534715                       # number of WritebackClean hits
system.l2.WritebackClean_accesses::.writebacks       534715                       # number of WritebackClean accesses(hits+misses)
system.l2.WritebackClean_accesses::total       534715                       # number of WritebackClean accesses(hits+misses)
system.l2.ReadExReq_hits::.cpu.data              1204                       # number of ReadExReq hits
system.l2.ReadExReq_hits::total                  1204                       # number of ReadExReq hits
system.l2.ReadExReq_misses::.cpu.data           38810                       # number of ReadExReq misses
system.l2.ReadExReq_misses::total               38810                       # number of ReadExReq misses
system.l2.ReadExReq_miss_latency::.cpu.data   4053813000                       # number of ReadExReq miss cycles
system.l2.ReadExReq_miss_latency::total    4053813000                       # number of ReadExReq miss cycles
system.l2.ReadExReq_accesses::.cpu.data         40014                       # number of ReadExReq accesses(hits+misses)
system.l2.ReadExReq_accesses::total             40014                       # number of ReadExReq accesses(hits+misses)
system.l2.ReadExReq_miss_rate::.cpu.data     0.969911                       # miss rate for ReadExReq accesses
system.l2.ReadExReq_miss_rate::total         0.969911                       # miss rate for ReadExReq accesses
system.l2.ReadExReq_avg_miss_latency::.cpu.data 104452.795671                       # average ReadExReq miss latency
system.l2.ReadExReq_avg_miss_latency::total 104452.795671                       # average ReadExReq miss latency
system.l2.ReadExReq_mshr_misses::.cpu.data        38810                       # number of ReadExReq MSHR misses
system.l2.ReadExReq_mshr_misses::total          38810                       # number of ReadExReq MSHR misses
system.l2.ReadExReq_mshr_miss_latency::.cpu.data   3277613000                       # number of ReadExReq MSHR miss cycles
system.l2.ReadExReq_mshr_miss_latency::total   3277613000                       # number of ReadExReq MSHR miss cycles
system.l2.ReadExReq_mshr_miss_rate::.cpu.data     0.969911                       # mshr miss rate for ReadExReq accesses
system.l2.ReadExReq_mshr_miss_rate::total     0.969911                       # mshr miss rate for ReadExReq accesses
system.l2.ReadExReq_avg_mshr_miss_latency::.cpu.data 84452.795671                       # average ReadExReq mshr miss latency
system.l2.ReadExReq_avg_mshr_miss_latency::total 84452.795671                       # average ReadExReq mshr miss latency
system.l2.ReadCleanReq_hits::.cpu.inst         534601                       # number of ReadCleanReq hits
system.l2.ReadCleanReq_hits::total             534601                       # number of ReadCleanReq hits
system.l2.ReadCleanReq_misses::.cpu.inst          523                       # number of ReadCleanReq misses
system.l2.ReadCleanReq_misses::total              523                       # number of ReadCleanReq misses
system.l2.ReadCleanReq_miss_latency::.cpu.inst     50846000                       # number of ReadCleanReq miss cycles
system.l2.ReadCleanReq_miss_latency::total     50846000                       # number of ReadCleanReq miss cycles
system.l2.ReadCleanReq_accesses::.cpu.inst       535124                       # number of ReadCleanReq accesses(hits+misses)
system.l2.ReadCleanReq_accesses::total         535124                       # number of ReadCleanReq accesses(hits+misses)
system.l2.ReadCleanReq_miss_rate::.cpu.inst     0.000977                       # miss rate for ReadCleanReq accesses
system.l2.ReadCleanReq_miss_rate::total      0.000977                       # miss rate for ReadCleanReq accesses
system.l2.ReadCleanReq_avg_miss_latency::.cpu.inst 97219.885277                       # average ReadCleanReq miss latency
system.l2.ReadCleanReq_avg_miss_latency::total 97219.885277                       # average ReadCleanReq miss latency
system.l2.ReadCleanReq_mshr_hits::.cpu.inst            1                       # number of ReadCleanReq MSHR hits
system.l2.ReadCleanReq_mshr_hits::total             1                       # number of ReadCleanReq MSHR hits
system.l2.ReadCleanReq_mshr_misses::.cpu.inst          522                       # number of ReadCleanReq MSHR misses
system.l2.ReadCleanReq_mshr_misses::total          522                       # number of ReadCleanReq MSHR misses
system.l2.ReadCleanReq_mshr_miss_latency::.cpu.inst     40326000                       # number of ReadCleanReq MSHR miss cycles
system.l2.ReadCleanReq_mshr_miss_latency::total     40326000                       # number of ReadCleanReq MSHR miss cycles
system.l2.ReadCleanReq_mshr_miss_rate::.cpu.inst     0.000975                       # mshr miss rate for ReadCleanReq accesses
system.l2.ReadCleanReq_mshr_miss_rate::total     0.000975                       # mshr miss rate for ReadCleanReq accesses
system.l2.ReadCleanReq_avg_mshr_miss_latency::.cpu.inst 77252.873563                       # average ReadCleanReq mshr miss latency
system.l2.ReadCleanReq_avg_mshr_miss_latency::total 77252.873563                       # average ReadCleanReq mshr miss latency
system.l2.ReadSharedReq_hits::.cpu.data         41293                       # number of ReadSharedReq hits
system.l2.ReadSharedReq_hits::total             41293                       # number of ReadSharedReq hits
system.l2.ReadSharedReq_misses::.cpu.data          532                       # number of ReadSharedReq misses
system.l2.ReadSharedReq_misses::total             532                       # number of ReadSharedReq misses
system.l2.ReadSharedReq_miss_latency::.cpu.data     56242000                       # number of ReadSharedReq miss cycles
system.l2.ReadSharedReq_miss_latency::total     56242000                       # number of ReadSharedReq miss cycles
system.l2.ReadSharedReq_accesses::.cpu.data        41825                       # number of ReadSharedReq accesses(hits+misses)
system.l2.ReadSharedReq_accesses::total         41825                       # number of ReadSharedReq accesses(hits+misses)
system.l2.ReadSharedReq_miss_rate::.cpu.data     0.012720                       # miss rate for ReadSharedReq accesses
system.l2.ReadSharedReq_miss_rate::total     0.012720                       # miss rate for ReadSharedReq accesses
system.l2.ReadSharedReq_avg_miss_latency::.cpu.data 105718.045113                       # average ReadSharedReq miss latency
system.l2.ReadSharedReq_avg_miss_latency::total 105718.045113                       # average ReadSharedReq miss latency
system.l2.ReadSharedReq_mshr_hits::.cpu.data            5                       # number of ReadSharedReq MSHR hits
system.l2.ReadSharedReq_mshr_hits::total            5                       # number of ReadSharedReq MSHR hits
system.l2.ReadSharedReq_mshr_misses::.cpu.data          527                       # number of ReadSharedReq MSHR misses
system.l2.ReadSharedReq_mshr_misses::total          527                       # number of ReadSharedReq MSHR misses
system.l2.ReadSharedReq_mshr_miss_latency::.cpu.data     45296000                       # number of ReadSharedReq MSHR miss cycles
system.l2.ReadSharedReq_mshr_miss_latency::total     45296000                       # number of ReadSharedReq MSHR miss cycles
system.l2.ReadSharedReq_mshr_miss_rate::.cpu.data     0.012600                       # mshr miss rate for ReadSharedReq accesses
system.l2.ReadSharedReq_mshr_miss_rate::total     0.012600                       # mshr miss rate for ReadSharedReq accesses
system.l2.ReadSharedReq_avg_mshr_miss_latency::.cpu.data 85950.664137                       # average ReadSharedReq mshr miss latency
system.l2.ReadSharedReq_avg_mshr_miss_latency::total 85950.664137                       # average ReadSharedReq mshr miss latency
system.l2.power_state.pwrStateResidencyTicks::UNDEFINED 123825220000                       # Cumulative time (in ticks) in various power states
system.l2.tags.tagsinuse                 26374.040293                       # Cycle average of tags in use
system.l2.tags.total_refs                     1231625                       # Total number of references to valid blocks.
system.l2.tags.sampled_refs                     39862                       # Sample count of references to valid blocks.
system.l2.tags.avg_refs                     30.897220                       # Average number of references to valid blocks.
system.l2.tags.warmup_cycle                     87000                       # Cycle when the warmup percentage was hit.
system.l2.tags.occ_blocks::.writebacks       0.927918                       # Average occupied blocks per requestor
system.l2.tags.occ_blocks::.cpu.inst       339.048358                       # Average occupied blocks per requestor
system.l2.tags.occ_blocks::.cpu.data     26034.064017                       # Average occupied blocks per requestor
system.l2.tags.occ_percent::.writebacks      0.000028                       # Average percentage of cache occupancy
system.l2.tags.occ_percent::.cpu.inst        0.010347                       # Average percentage of cache occupancy
system.l2.tags.occ_percent::.cpu.data        0.794497                       # Average percentage of cache occupancy
system.l2.tags.occ_percent::total            0.804872                       # Average percentage of cache occupancy
system.l2.tags.occ_task_id_blocks::1024         32768                       # Occupied blocks per task id
system.l2.tags.age_task_id_blocks_1024::0            1                       # Occupied blocks per task id
system.l2.tags.age_task_id_blocks_1024::1           16                       # Occupied blocks per task id
system.l2.tags.age_task_id_blocks_1024::2          179                       # Occupied blocks per task id
system.l2.tags.age_task_id_blocks_1024::3         1770                       # Occupied blocks per task id
system.l2.tags.age_task_id_blocks_1024::4        30802                       # Occupied blocks per task id
system.l2.tags.occ_task_id_percent::1024            1                       # Percentage of cache occupancy per task id
system.l2.tags.tag_accesses                   9892910                       # Number of tag accesses
system.l2.tags.data_accesses                  9892910                       # Number of data accesses
system.l2.tags.power_state.pwrStateResidencyTicks::UNDEFINED 123825220000                       # Cumulative time (in ticks) in various power states
system.mem_ctrls.avgPriority_.writebacks::samples      6536.00                       # Average QoS priority value for accepted requests
system.mem_ctrls.avgPriority_.cpu.inst::samples       522.00                       # Average QoS priority value for accepted requests
system.mem_ctrls.avgPriority_.cpu.data::samples     39337.00                       # Average QoS priority value for accepted requests
system.mem_ctrls.priorityMinLatency      0.000000018750                       # per QoS priority minimum request to response latency (s)
system.mem_ctrls.priorityMaxLatency      0.035023202500                       # per QoS priority maximum request to response latency (s)
system.mem_ctrls.numReadWriteTurnArounds          361                       # Number of turnarounds from READ to WRITE
system.mem_ctrls.numWriteReadTurnArounds          361                       # Number of turnarounds from WRITE to READ
system.mem_ctrls.numStayReadState              118030                       # Number of times bus staying in READ state
system.mem_ctrls.numStayWriteState               6160                       # Number of times bus staying in WRITE state
system.mem_ctrls.readReqs                       39859                       # Number of read requests accepted
system.mem_ctrls.writeReqs                       6536                       # Number of write requests accepted
system.mem_ctrls.readBursts                     39859                       # Number of controller read bursts, including those serviced by the write queue
system.mem_ctrls.writeBursts                     6536                       # Number of controller write bursts, including those merged in the write queue
system.mem_ctrls.servicedByWrQ                      0                       # Number of controller read bursts serviced by the write queue
system.mem_ctrls.mergedWrBursts                     0                       # Number of controller write bursts merged with an existing one
system.mem_ctrls.neitherReadNorWriteReqs            0                       # Number of requests that are neither read nor write
system.mem_ctrls.avgRdQLen                       1.00                       # Average read queue length when enqueuing
system.mem_ctrls.avgWrQLen                       9.53                       # Average write queue length when enqueuing
system.mem_ctrls.numRdRetry                         0                       # Number of times read queue was full causing retry
system.mem_ctrls.numWrRetry                         0                       # Number of times write queue was full causing retry
system.mem_ctrls.readPktSize::0                     0                       # Read request sizes (log2)
system.mem_ctrls.readPktSize::1                     0                       # Read request sizes (log2)
system.mem_ctrls.readPktSize::2                     0                       # Read request sizes (log2)
system.mem_ctrls.readPktSize::3                     0                       # Read request sizes (log2)
system.mem_ctrls.readPktSize::4                     0                       # Read request sizes (log2)
system.mem_ctrls.readPktSize::5                     0                       # Read request sizes (log2)
system.mem_ctrls.readPktSize::6                 39859                       # Read request sizes (log2)
system.mem_ctrls.writePktSize::0                    0                       # Write request sizes (log2)
system.mem_ctrls.writePktSize::1                    0                       # Write request sizes (log2)
system.mem_ctrls.writePktSize::2                    0                       # Write request sizes (log2)
system.mem_ctrls.writePktSize::3                    0                       # Write request sizes (log2)
system.mem_ctrls.writePktSize::4                    0                       # Write request sizes (log2)
system.mem_ctrls.writePktSize::5                    0                       # Write request sizes (log2)
system.mem_ctrls.writePktSize::6                 6536                       # Write request sizes (log2)
system.mem_ctrls.rdQLenPdf::0                   39702                       # What read queue length does an incoming req see
system.mem_ctrls.rdQLenPdf::1                     152                       # What read queue length does an incoming req see
system.mem_ctrls.rdQLenPdf::2                       5                       # What read queue length does an incoming req see
system.mem_ctrls.rdQLenPdf::3                       0                       # What read queue length does an incoming req see
system.mem_ctrls.rdQLenPdf::4                       0                       # What read queue length does an incoming req see
system.mem_ctrls.rdQLenPdf::5                       0                       # What read queue length does an incoming req see
[...]
system.mem_ctrls.dram.bw_write::.writebacks      3378181                       # Write bandwidth from this memory (bytes/s)
system.mem_ctrls.dram.bw_write::total         3378181                       # Write bandwidth from this memory (bytes/s)
system.mem_ctrls.dram.bw_total::.writebacks      3378181                       # Total bandwidth to/from this memory (bytes/s)
system.mem_ctrls.dram.bw_total::.cpu.inst       269800                       # Total bandwidth to/from this memory (bytes/s)
system.mem_ctrls.dram.bw_total::.cpu.data     20331625                       # Total bandwidth to/from this memory (bytes/s)
system.mem_ctrls.dram.bw_total::total        23979606                       # Total bandwidth to/from this memory (bytes/s)
system.mem_ctrls.dram.readBursts                39859                       # Number of DRAM read bursts
system.mem_ctrls.dram.writeBursts                6506                       # Number of DRAM write bursts
system.mem_ctrls.dram.perBankRdBursts::0         2530                       # Per bank write bursts
system.mem_ctrls.dram.perBankRdBursts::1         2492                       # Per bank write bursts
system.mem_ctrls.dram.perBankRdBursts::2         2485                       # Per bank write bursts
system.mem_ctrls.dram.perBankRdBursts::3         2595                       # Per bank write bursts
system.mem_ctrls.dram.perBankRdBursts::4         2448                       # Per bank write bursts
system.mem_ctrls.dram.perBankRdBursts::5         2383                       # Per bank write bursts
system.mem_ctrls.dram.perBankRdBursts::6         2455                       # Per bank write bursts
system.mem_ctrls.dram.perBankRdBursts::7         2464                       # Per bank write bursts
system.mem_ctrls.dram.perBankRdBursts::8         2472                       # Per bank write bursts
system.mem_ctrls.dram.perBankRdBursts::9         2507                       # Per bank write bursts
system.mem_ctrls.dram.perBankRdBursts::10         2493                       # Per bank write bursts
system.mem_ctrls.dram.perBankRdBursts::11         2512                       # Per bank write bursts
system.mem_ctrls.dram.perBankRdBursts::12         2501                       # Per bank write bursts
system.mem_ctrls.dram.perBankRdBursts::13         2489                       # Per bank write bursts
system.mem_ctrls.dram.perBankRdBursts::14         2517                       # Per bank write bursts
system.mem_ctrls.dram.perBankRdBursts::15         2516                       # Per bank write bursts
system.mem_ctrls.dram.perBankWrBursts::0          442                       # Per bank write bursts
system.mem_ctrls.dram.perBankWrBursts::1          410                       # Per bank write bursts
system.mem_ctrls.dram.perBankWrBursts::2          424                       # Per bank write bursts
system.mem_ctrls.dram.perBankWrBursts::3          465                       # Per bank write bursts
system.mem_ctrls.dram.perBankWrBursts::4          357                       # Per bank write bursts
system.mem_ctrls.dram.perBankWrBursts::5          335                       # Per bank write bursts
system.mem_ctrls.dram.perBankWrBursts::6          407                       # Per bank write bursts
system.mem_ctrls.dram.perBankWrBursts::7          394                       # Per bank write bursts
system.mem_ctrls.dram.perBankWrBursts::8          397                       # Per bank write bursts
system.mem_ctrls.dram.perBankWrBursts::9          412                       # Per bank write bursts
system.mem_ctrls.dram.perBankWrBursts::10          404                       # Per bank write bursts
system.mem_ctrls.dram.perBankWrBursts::11          401                       # Per bank write bursts
system.mem_ctrls.dram.perBankWrBursts::12          406                       # Per bank write bursts
system.mem_ctrls.dram.perBankWrBursts::13          416                       # Per bank write bursts
system.mem_ctrls.dram.perBankWrBursts::14          396                       # Per bank write bursts
system.mem_ctrls.dram.perBankWrBursts::15          440                       # Per bank write bursts
system.mem_ctrls.dram.totQLat               568506750                       # Total ticks spent queuing
system.mem_ctrls.dram.totBusLat             199295000                       # Total ticks spent in databus transfers
system.mem_ctrls.dram.totMemAccLat         1315863000                       # Total ticks spent from burst creation until serviced by the DRAM
system.mem_ctrls.dram.avgQLat                14262.95                       # Average queueing delay per DRAM burst
system.mem_ctrls.dram.avgBusLat               5000.00                       # Average bus latency per DRAM burst
system.mem_ctrls.dram.avgMemAccLat           33012.95                       # Average memory access latency per DRAM burst
system.mem_ctrls.dram.readRowHits               20776                       # Number of row buffer hits during reads
system.mem_ctrls.dram.writeRowHits               5441                       # Number of row buffer hits during writes
system.mem_ctrls.dram.readRowHitRate            52.12                       # Row buffer hit rate for reads
system.mem_ctrls.dram.writeRowHitRate           83.63                       # Row buffer hit rate for writes
system.mem_ctrls.dram.bytesPerActivate::samples        20148                       # Bytes accessed per row activation
system.mem_ctrls.dram.bytesPerActivate::mean   147.278142                       # Bytes accessed per row activation
system.mem_ctrls.dram.bytesPerActivate::gmean   111.523904                       # Bytes accessed per row activation
system.mem_ctrls.dram.bytesPerActivate::stdev   148.003887                       # Bytes accessed per row activation
system.mem_ctrls.dram.bytesPerActivate::0-127         9732     48.30%     48.30% # Bytes accessed per row activation
system.mem_ctrls.dram.bytesPerActivate::128-255         7395     36.70%     85.01% # Bytes accessed per row activation
system.mem_ctrls.dram.bytesPerActivate::256-383         1166      5.79%     90.79% # Bytes accessed per row activation
system.mem_ctrls.dram.bytesPerActivate::384-511         1123      5.57%     96.37% # Bytes accessed per row activation
system.mem_ctrls.dram.bytesPerActivate::512-639          402      2.00%     98.36% # Bytes accessed per row activation
system.mem_ctrls.dram.bytesPerActivate::640-767           42      0.21%     98.57% # Bytes accessed per row activation
system.mem_ctrls.dram.bytesPerActivate::768-895           56      0.28%     98.85% # Bytes accessed per row activation
system.mem_ctrls.dram.bytesPerActivate::896-1023           54      0.27%     99.12% # Bytes accessed per row activation
system.mem_ctrls.dram.bytesPerActivate::1024-1151          178      0.88%    100.00% # Bytes accessed per row activation
system.mem_ctrls.dram.bytesPerActivate::total        20148                       # Bytes accessed per row activation
system.mem_ctrls.dram.bytesRead               2550976                       # Total number of bytes read from DRAM
system.mem_ctrls.dram.bytesWritten             416384                       # Total number of bytes written to DRAM
system.mem_ctrls.dram.avgRdBW               20.601425                       # Average DRAM read bandwidth in MiBytes/s
system.mem_ctrls.dram.avgWrBW                3.362675                       # Average DRAM write bandwidth in MiBytes/s
system.mem_ctrls.dram.peakBW                 12800.00                       # Theoretical peak bandwidth in MiByte/s
system.mem_ctrls.dram.busUtil                    0.19                       # Data bus utilization in percentage
system.mem_ctrls.dram.busUtilRead                0.16                       # Data bus utilization in percentage for reads
system.mem_ctrls.dram.busUtilWrite               0.03                       # Data bus utilization in percentage for writes
system.mem_ctrls.dram.pageHitRate               56.54                       # Row buffer hit rate, read and write combined
system.mem_ctrls.dram.power_state.pwrStateResidencyTicks::UNDEFINED 123825220000                       # Cumulative time (in ticks) in various power states
system.mem_ctrls.dram.rank0.actEnergy        73077900                       # Energy for activate commands per rank (pJ)
system.mem_ctrls.dram.rank0.preEnergy        38841825                       # Energy for precharge commands per rank (pJ)
system.mem_ctrls.dram.rank0.readEnergy      141743280                       # Energy for read commands per rank (pJ)
system.mem_ctrls.dram.rank0.writeEnergy      16881480                       # Energy for write commands per rank (pJ)
system.mem_ctrls.dram.rank0.refreshEnergy 9774619920.000002                       # Energy for refresh commands per rank (pJ)
system.mem_ctrls.dram.rank0.actBackEnergy  21614588100                       # Energy for active background per rank (pJ)
system.mem_ctrls.dram.rank0.preBackEnergy  29347126080                       # Energy for precharge background per rank (pJ)
system.mem_ctrls.dram.rank0.actPowerDownEnergy            0                       # Energy for active power-down per rank (pJ)
system.mem_ctrls.dram.rank0.prePowerDownEnergy            0                       # Energy for precharge power-down per rank (pJ)
system.mem_ctrls.dram.rank0.selfRefreshEnergy            0                       # Energy for self refresh per rank (pJ)
system.mem_ctrls.dram.rank0.totalEnergy   61006878585                       # Total energy per rank (pJ)
system.mem_ctrls.dram.rank0.averagePower   492.685404                       # Core power per rank (mW)
system.mem_ctrls.dram.rank0.totalIdleTime            0                       # Total Idle time Per DRAM Rank
system.mem_ctrls.dram.rank0.pwrStateTime::IDLE  76084539750                       # Time in different power states
system.mem_ctrls.dram.rank0.pwrStateTime::REF   4134780000                       # Time in different power states
system.mem_ctrls.dram.rank0.pwrStateTime::SREF            0                       # Time in different power states
system.mem_ctrls.dram.rank0.pwrStateTime::PRE_PDN            0                       # Time in different power states
system.mem_ctrls.dram.rank0.pwrStateTime::ACT  43605900250                       # Time in different power states
system.mem_ctrls.dram.rank0.pwrStateTime::ACT_PDN            0                       # Time in different power states
system.mem_ctrls.dram.rank1.actEnergy        70778820                       # Energy for activate commands per rank (pJ)
system.mem_ctrls.dram.rank1.preEnergy        37619835                       # Energy for precharge commands per rank (pJ)
system.mem_ctrls.dram.rank1.readEnergy      142849980                       # Energy for read commands per rank (pJ)
system.mem_ctrls.dram.rank1.writeEnergy      17079840                       # Energy for write commands per rank (pJ)
system.mem_ctrls.dram.rank1.refreshEnergy 9774619920.000002                       # Energy for refresh commands per rank (pJ)
system.mem_ctrls.dram.rank1.actBackEnergy  21320358090                       # Energy for active background per rank (pJ)
system.mem_ctrls.dram.rank1.preBackEnergy  29594898720                       # Energy for precharge background per rank (pJ)
system.mem_ctrls.dram.rank1.actPowerDownEnergy            0                       # Energy for active power-down per rank (pJ)
system.mem_ctrls.dram.rank1.prePowerDownEnergy            0                       # Energy for precharge power-down per rank (pJ)
system.mem_ctrls.dram.rank1.selfRefreshEnergy            0                       # Energy for self refresh per rank (pJ)
system.mem_ctrls.dram.rank1.totalEnergy   60958205205                       # Total energy per rank (pJ)
system.mem_ctrls.dram.rank1.averagePower   492.292323                       # Core power per rank (mW)
system.mem_ctrls.dram.rank1.totalIdleTime            0                       # Total Idle time Per DRAM Rank
system.mem_ctrls.dram.rank1.pwrStateTime::IDLE  76731454250                       # Time in different power states
system.mem_ctrls.dram.rank1.pwrStateTime::REF   4134780000                       # Time in different power states
system.mem_ctrls.dram.rank1.pwrStateTime::SREF            0                       # Time in different power states
system.mem_ctrls.dram.rank1.pwrStateTime::PRE_PDN            0                       # Time in different power states
system.mem_ctrls.dram.rank1.pwrStateTime::ACT  42958985750                       # Time in different power states
system.mem_ctrls.dram.rank1.pwrStateTime::ACT_PDN            0                       # Time in different power states
system.mem_ctrls.power_state.pwrStateResidencyTicks::UNDEFINED 123825220000                       # Cumulative time (in ticks) in various power states
system.membus.trans_dist::ReadResp               1049                       # Transaction distribution
system.membus.trans_dist::WritebackDirty         6536                       # Transaction distribution
system.membus.trans_dist::CleanEvict              175                       # Transaction distribution
system.membus.trans_dist::ReadExReq             38810                       # Transaction distribution
system.membus.trans_dist::ReadExResp            38810                       # Transaction distribution
system.membus.trans_dist::ReadSharedReq          1049                       # Transaction distribution
system.membus.pkt_count_system.l2.mem_side_port::system.mem_ctrls.port        86429                       # Packet count per connected requestor and responder (bytes)
system.membus.pkt_count::total                  86429                       # Packet count per connected requestor and responder (bytes)
system.membus.pkt_size_system.l2.mem_side_port::system.mem_ctrls.port      2969280                       # Cumulative packet size per connected requestor and responder (bytes)
system.membus.pkt_size::total                 2969280                       # Cumulative packet size per connected requestor and responder (bytes)
system.membus.snoops                                0                       # Total snoops (count)
system.membus.snoopTraffic                          0                       # Total snoop traffic (bytes)
system.membus.snoop_fanout::samples             39859                       # Request fanout histogram
system.membus.snoop_fanout::mean                    0                       # Request fanout histogram
system.membus.snoop_fanout::stdev                   0                       # Request fanout histogram
system.membus.snoop_fanout::underflows              0      0.00%      0.00% # Request fanout histogram
system.membus.snoop_fanout::0                   39859    100.00%    100.00% # Request fanout histogram
system.membus.snoop_fanout::1                       0      0.00%    100.00% # Request fanout histogram
system.membus.snoop_fanout::overflows               0      0.00%    100.00% # Request fanout histogram
system.membus.snoop_fanout::min_value               0                       # Request fanout histogram
system.membus.snoop_fanout::max_value               0                       # Request fanout histogram
system.membus.snoop_fanout::total               39859                       # Request fanout histogram
system.membus.power_state.pwrStateResidencyTicks::UNDEFINED 123825220000                       # Cumulative time (in ticks) in various power states
system.membus.reqLayer0.occupancy            72714000                       # Layer occupancy (ticks)
system.membus.reqLayer0.utilization               0.1                       # Layer utilization (%)
system.membus.respLayer1.occupancy          213850250                       # Layer occupancy (ticks)
system.membus.respLayer1.utilization              0.2                       # Layer utilization (%)
system.tol2bus.trans_dist::ReadResp            576949                       # Transaction distribution
system.tol2bus.trans_dist::WritebackDirty        71539                       # Transaction distribution
system.tol2bus.trans_dist::WritebackClean       534722                       # Transaction distribution
system.tol2bus.trans_dist::CleanEvict           17138                       # Transaction distribution
system.tol2bus.trans_dist::ReadExReq            40014                       # Transaction distribution
system.tol2bus.trans_dist::ReadExResp           40014                       # Transaction distribution
system.tol2bus.trans_dist::ReadCleanReq        535124                       # Transaction distribution
system.tol2bus.trans_dist::ReadSharedReq        41825                       # Transaction distribution
system.tol2bus.pkt_count_system.cpu.icache.mem_side_port::system.l2.cpu_side_port      1604970                       # Packet count per connected requestor and responder (bytes)
system.tol2bus.pkt_count_system.cpu.dcache.mem_side_port::system.l2.cpu_side_port       245261                       # Packet count per connected requestor and responder (bytes)
system.tol2bus.pkt_count::total               1850231                       # Packet count per connected requestor and responder (bytes)
system.tol2bus.pkt_size_system.cpu.icache.mem_side_port::system.l2.cpu_side_port     68470144                       # Cumulative packet size per connected requestor and responder (bytes)
system.tol2bus.pkt_size_system.cpu.dcache.mem_side_port::system.l2.cpu_side_port      9397888                       # Cumulative packet size per connected requestor and responder (bytes)
system.tol2bus.pkt_size::total               77868032                       # Cumulative packet size per connected requestor and responder (bytes)
system.tol2bus.snoops                            7094                       # Total snoops (count)
system.tol2bus.snoopTraffic                    418304                       # Total snoop traffic (bytes)
system.tol2bus.snoop_fanout::samples           624057                       # Request fanout histogram
system.tol2bus.snoop_fanout::mean            0.003243                       # Request fanout histogram
system.tol2bus.snoop_fanout::stdev           0.056858                       # Request fanout histogram
system.tol2bus.snoop_fanout::underflows             0      0.00%      0.00% # Request fanout histogram
system.tol2bus.snoop_fanout::0                 622033     99.68%     99.68% # Request fanout histogram
system.tol2bus.snoop_fanout::1                   2024      0.32%    100.00% # Request fanout histogram
system.tol2bus.snoop_fanout::2                      0      0.00%    100.00% # Request fanout histogram
system.tol2bus.snoop_fanout::overflows              0      0.00%    100.00% # Request fanout histogram
system.tol2bus.snoop_fanout::min_value              0                       # Request fanout histogram
system.tol2bus.snoop_fanout::max_value              1                       # Request fanout histogram
system.tol2bus.snoop_fanout::total             624057                       # Request fanout histogram
system.tol2bus.power_state.pwrStateResidencyTicks::UNDEFINED 123825220000                       # Cumulative time (in ticks) in various power states
system.tol2bus.reqLayer0.occupancy         2432718000                       # Layer occupancy (ticks)
system.tol2bus.reqLayer0.utilization              2.0                       # Layer utilization (%)
system.tol2bus.respLayer0.occupancy        1605372999                       # Layer occupancy (ticks)
system.tol2bus.respLayer0.utilization             1.3                       # Layer utilization (%)
system.tol2bus.respLayer1.occupancy         245523993                       # Layer occupancy (ticks)
system.tol2bus.respLayer1.utilization             0.2                       # Layer utilization (%)
system.voltage_domain.voltage                       1                       # Voltage in Volts

---------- End Simulation Statistics   ----------
