
---------- Begin Simulation Statistics ----------
final_tick                               163796542000                       # Number of ticks from beginning of simulation (restored from checkpoints and never reset)
host_inst_rate                                 229334                       # Simulator instruction rate (inst/s)
host_mem_usage                                 666396                       # Number of bytes of host memory used
host_op_rate                                   229784                       # Simulator op (including micro ops) rate (op/s)
host_seconds                                   436.05                       # Real time elapsed on the host
host_tick_rate                              375640631                       # Simulator tick rate (ticks/s)
sim_freq                                 1000000000000                       # Frequency of simulated ticks
sim_insts                                   100000001                       # Number of instructions simulated
sim_ops                                     100196356                       # Number of ops (including micro ops) simulated
sim_seconds                                  0.163797                       # Number of seconds simulated
sim_ticks                                163796542000                       # Number of ticks simulated
system.cpu.committedInsts                   100000001                       # Number of instructions committed
system.cpu.committedOps                     100196356                       # Number of ops (including micro ops) committed
system.cpu.cpi                               1.637965                       # CPI: cycles per instruction
system.cpu.discardedOps                        189484                       # Number of ops (including micro ops) which were discarded before commit
system.cpu.idleCycles                        30961954                       # Total number of cycles that the object has spent stopped
system.cpu.ipc                               0.610514                       # IPC: instructions per cycle
system.cpu.numCycles                        163796542                       # number of cpu cycles simulated
system.cpu.numFetchSuspends                         0                       # Number of times Execute suspended instruction fetching
system.cpu.numWorkItemsCompleted                    0                       # number of work items this cpu completed
system.cpu.numWorkItemsStarted                      0                       # number of work items this cpu started
system.cpu.op_class_0::No_OpClass                   0      0.00%      0.00% # Class of committed instruction
system.cpu.op_class_0::IntAlu                46526863     46.44%     46.44% # Class of committed instruction
system.cpu.op_class_0::IntMult                  20723      0.02%     46.46% # Class of committed instruction
system.cpu.op_class_0::IntDiv                       0      0.00%     46.46% # Class of committed instruction
system.cpu.op_class_0::FloatAdd                     0      0.00%     46.46% # Class of committed instruction
system.cpu.op_class_0::FloatCmp                     0      0.00%     46.46% # Class of committed instruction
system.cpu.op_class_0::FloatCvt                     0      0.00%     46.46% # Class of committed instruction
system.cpu.op_class_0::FloatMult                    0      0.00%     46.46% # Class of committed instruction
system.cpu.op_class_0::FloatMultAcc                 0      0.00%     46.46% # Class of committed instruction
system.cpu.op_class_0::FloatDiv                     0      0.00%     46.46% # Class of committed instruction
system.cpu.op_class_0::FloatMisc                    0      0.00%     46.46% # Class of committed instruction
system.cpu.op_class_0::FloatSqrt                    0      0.00%     46.46% # Class of committed instruction
system.cpu.op_class_0::SimdAdd                      0      0.00%     46.46% # Class of committed instruction
system.cpu.op_class_0::SimdAddAcc                   0      0.00%     46.46% # Class of committed instruction
system.cpu.op_class_0::SimdAlu                      0      0.00%     46.46% # Class of committed instruction
system.cpu.op_class_0::SimdCmp                      0      0.00%     46.46% # Class of committed instruction
system.cpu.op_class_0::SimdCvt                      0      0.00%     46.46% # Class of committed instruction
system.cpu.op_class_0::SimdMisc                     0      0.00%     46.46% # Class of committed instruction
system.cpu.op_class_0::SimdMult                     0      0.00%     46.46% # Class of committed instruction
system.cpu.op_class_0::SimdMultAcc                  0      0.00%     46.46% # Class of committed instruction
system.cpu.op_class_0::SimdShift                    0      0.00%     46.46% # Class of committed instruction
system.cpu.op_class_0::SimdShiftAcc                 0      0.00%     46.46% # Class of committed instruction
system.cpu.op_class_0::SimdDiv                      0      0.00%     46.46% # Class of committed instruction
system.cpu.op_class_0::SimdSqrt                     0      0.00%     46.46% # Class of committed instruction
system.cpu.op_class_0::SimdFloatAdd                 0      0.00%     46.46% # Class of committed instruction
system.cpu.op_class_0::SimdFloatAlu                 0      0.00%     46.46% # Class of committed instruction
system.cpu.op_class_0::SimdFloatCmp                 0      0.00%     46.46% # Class of committed instruction
system.cpu.op_class_0::SimdFloatCvt                 0      0.00%     46.46% # Class of committed instruction
system.cpu.op_class_0::SimdFloatDiv                 0      0.00%     46.46% # Class of committed instruction
system.cpu.op_class_0::SimdFloatMisc               18      0.00%     46.46% # Class of committed instruction
system.cpu.op_class_0::SimdFloatMult                0      0.00%     46.46% # Class of committed instruction
system.cpu.op_class_0::SimdFloatMultAcc             0      0.00%     46.46% # Class of committed instruction
system.cpu.op_class_0::SimdFloatSqrt                0      0.00%     46.46% # Class of committed instruction
system.cpu.op_class_0::SimdReduceAdd                0      0.00%     46.46% # Class of committed instruction
system.cpu.op_class_0::SimdReduceAlu                0      0.00%     46.46% # Class of committed instruction
system.cpu.op_class_0::SimdReduceCmp                0      0.00%     46.46% # Class of committed instruction
system.cpu.op_class_0::SimdFloatReduceAdd            0      0.00%     46.46% # Class of committed instruction
system.cpu.op_class_0::SimdFloatReduceCmp            0      0.00%     46.46% # Class of committed instruction
system.cpu.op_class_0::SimdAes                      0      0.00%     46.46% # Class of committed instruction
system.cpu.op_class_0::SimdAesMix                   0      0.00%     46.46% # Class of committed instruction
system.cpu.op_class_0::SimdSha1Hash                 0      0.00%     46.46% # Class of committed instruction
system.cpu.op_class_0::SimdSha1Hash2                0      0.00%     46.46% # Class of committed instruction
system.cpu.op_class_0::SimdSha256Hash               0      0.00%     46.46% # Class of committed instruction
system.cpu.op_class_0::SimdSha256Hash2              0      0.00%     46.46% # Class of committed instruction
system.cpu.op_class_0::SimdShaSigma2                0      0.00%     46.46% # Class of committed instruction
system.cpu.op_class_0::SimdShaSigma3                0      0.00%     46.46% # Class of committed instruction
system.cpu.op_class_0::SimdPredAlu                  0      0.00%     46.46% # Class of committed instruction
system.cpu.op_class_0::MemRead               42690537     42.61%     89.06% # Class of committed instruction
system.cpu.op_class_0::MemWrite              10958215     10.94%    100.00% # Class of committed instruction
system.cpu.op_class_0::FloatMemRead                 0      0.00%    100.00% # Class of committed instruction
system.cpu.op_class_0::FloatMemWrite                0      0.00%    100.00% # Class of committed instruction
system.cpu.op_class_0::IprAccess                    0      0.00%    100.00% # Class of committed instruction
system.cpu.op_class_0::InstPrefetch                 0      0.00%    100.00% # Class of committed instruction
system.cpu.op_class_0::total                100196356                       # Class of committed instruction
system.cpu.tickCycles                       132834588                       # Number of cycles that the object actually ticked
system.cpu.workload.numSyscalls                    85                       # Number of system calls
system.membus.snoop_filter.hit_multi_requests            0                       # Number of requests hitting in the snoop filter with multiple (>1) holders of the requested data.
system.membus.snoop_filter.hit_multi_snoops            0                       # Number of snoops hitting in the snoop filter with multiple (>1) holders of the requested data.
system.membus.snoop_filter.hit_single_requests       168939                       # Number of requests hitting in the snoop filter with a single holder of the requested data.
system.membus.snoop_filter.hit_single_snoops            0                       # Number of snoops hitting in the snoop filter with a single holder of the requested data.
system.membus.snoop_filter.tot_requests        370790                       # Total number of requests made to the snoop filter.
system.membus.snoop_filter.tot_snoops               0                       # Total number of snoops made to the snoop filter.
system.tol2bus.snoop_filter.hit_multi_requests          381                       # Number of requests hitting in the snoop filter with multiple (>1) holders of the requested data.
system.tol2bus.snoop_filter.hit_multi_snoops            0                       # Number of snoops hitting in the snoop filter with multiple (>1) holders of the requested data.
system.tol2bus.snoop_filter.hit_single_requests       875247                       # Number of requests hitting in the snoop filter with a single holder of the requested data.
system.tol2bus.snoop_filter.hit_single_snoops          402                       # Number of snoops hitting in the snoop filter with a single holder of the requested data.
system.tol2bus.snoop_filter.tot_requests      1751260                       # Total number of requests made to the snoop filter.
system.tol2bus.snoop_filter.tot_snoops            402                       # Total number of snoops made to the snoop filter.
system.clk_domain.clock                          1000                       # Clock period in ticks
system.cpu.branchPred.lookups                 4485721                       # Number of BP lookups
system.cpu.branchPred.condPredicted           3735417                       # Number of conditional branches predicted
system.cpu.branchPred.condIncorrect             81005                       # Number of conditional branches incorrect
system.cpu.branchPred.BTBLookups              2103821                       # Number of BTB lookups
system.cpu.branchPred.BTBHits                 2101823                       # Number of BTB hits
system.cpu.branchPred.BTBHitPct             99.905030                       # BTB Hit Percentage
system.cpu.branchPred.RASUsed                   65377                       # Number of times the RAS was used to get a target.
system.cpu.branchPred.RASIncorrect                 14                       # Number of incorrect RAS predictions.
system.cpu.branchPred.indirectLookups             691                       # Number of indirect predictor lookups.
system.cpu.branchPred.indirectHits                288                       # Number of indirect target hits.
system.cpu.branchPred.indirectMisses              403                       # Number of indirect misses.
system.cpu.branchPred.indirectMispredicted          171                       # Number of mispredicted indirect branches.
system.cpu.dcache.demand_hits::.cpu.data     51140305                       # number of demand (read+write) hits
system.cpu.dcache.demand_hits::total         51140305                       # number of demand (read+write) hits
system.cpu.dcache.overall_hits::.cpu.data     51140777                       # number of overall hits
system.cpu.dcache.overall_hits::total        51140777                       # number of overall hits
system.cpu.dcache.demand_misses::.cpu.data       920443                       # number of demand (read+write) misses
system.cpu.dcache.demand_misses::total         920443                       # number of demand (read+write) misses
system.cpu.dcache.overall_misses::.cpu.data       928390                       # number of overall misses
system.cpu.dcache.overall_misses::total        928390                       # number of overall misses
system.cpu.dcache.demand_miss_latency::.cpu.data  40216370000                       # number of demand (read+write) miss cycles
system.cpu.dcache.demand_miss_latency::total  40216370000                       # number of demand (read+write) miss cycles
system.cpu.dcache.overall_miss_latency::.cpu.data  40216370000                       # number of overall miss cycles
system.cpu.dcache.overall_miss_latency::total  40216370000                       # number of overall miss cycles
system.cpu.dcache.demand_accesses::.cpu.data     52060748                       # number of demand (read+write) accesses
system.cpu.dcache.demand_accesses::total     52060748                       # number of demand (read+write) accesses
system.cpu.dcache.overall_accesses::.cpu.data     52069167                       # number of overall (read+write) accesses
system.cpu.dcache.overall_accesses::total     52069167                       # number of overall (read+write) accesses
system.cpu.dcache.demand_miss_rate::.cpu.data     0.017680                       # miss rate for demand accesses
system.cpu.dcache.demand_miss_rate::total     0.017680                       # miss rate for demand accesses
system.cpu.dcache.overall_miss_rate::.cpu.data     0.017830                       # miss rate for overall accesses
system.cpu.dcache.overall_miss_rate::total     0.017830                       # miss rate for overall accesses
system.cpu.dcache.demand_avg_miss_latency::.cpu.data 43692.406808                       # average overall miss latency
system.cpu.dcache.demand_avg_miss_latency::total 43692.406808                       # average overall miss latency
system.cpu.dcache.overall_avg_miss_latency::.cpu.data 43318.400672                       # average overall miss latency
system.cpu.dcache.overall_avg_miss_latency::total 43318.400672                       # average overall miss latency
system.cpu.dcache.blocked_cycles::no_mshrs        98699                       # number of cycles access was blocked
system.cpu.dcache.blocked_cycles::no_targets            0                       # number of cycles access was blocked
system.cpu.dcache.blocked::no_mshrs              3372                       # number of cycles access was blocked
system.cpu.dcache.blocked::no_targets               0                       # number of cycles access was blocked
system.cpu.dcache.avg_blocked_cycles::no_mshrs    29.270166                       # average number of cycles each access was blocked
system.cpu.dcache.avg_blocked_cycles::no_targets          nan                       # average number of cycles each access was blocked
system.cpu.dcache.writebacks::.writebacks       795995                       # number of writebacks
system.cpu.dcache.writebacks::total            795995                       # number of writebacks
system.cpu.dcache.demand_mshr_hits::.cpu.data        53198                       # number of demand (read+write) MSHR hits
system.cpu.dcache.demand_mshr_hits::total        53198                       # number of demand (read+write) MSHR hits
system.cpu.dcache.overall_mshr_hits::.cpu.data        53198                       # number of overall MSHR hits
system.cpu.dcache.overall_mshr_hits::total        53198                       # number of overall MSHR hits
system.cpu.dcache.demand_mshr_misses::.cpu.data       867245                       # number of demand (read+write) MSHR misses
system.cpu.dcache.demand_mshr_misses::total       867245                       # number of demand (read+write) MSHR misses
system.cpu.dcache.overall_mshr_misses::.cpu.data       875188                       # number of overall MSHR misses
system.cpu.dcache.overall_mshr_misses::total       875188                       # number of overall MSHR misses
system.cpu.dcache.demand_mshr_miss_latency::.cpu.data  36912964000                       # number of demand (read+write) MSHR miss cycles
system.cpu.dcache.demand_mshr_miss_latency::total  36912964000                       # number of demand (read+write) MSHR miss cycles
system.cpu.dcache.overall_mshr_miss_latency::.cpu.data  37747199999                       # number of overall MSHR miss cycles
system.cpu.dcache.overall_mshr_miss_latency::total  37747199999                       # number of overall MSHR miss cycles
system.cpu.dcache.demand_mshr_miss_rate::.cpu.data     0.016658                       # mshr miss rate for demand accesses
system.cpu.dcache.demand_mshr_miss_rate::total     0.016658                       # mshr miss rate for demand accesses
system.cpu.dcache.overall_mshr_miss_rate::.cpu.data     0.016808                       # mshr miss rate for overall accesses
system.cpu.dcache.overall_mshr_miss_rate::total     0.016808                       # mshr miss rate for overall accesses
system.cpu.dcache.demand_avg_mshr_miss_latency::.cpu.data 42563.478602                       # average overall mshr miss latency
system.cpu.dcache.demand_avg_mshr_miss_latency::total 42563.478602                       # average overall mshr miss latency
system.cpu.dcache.overall_avg_mshr_miss_latency::.cpu.data 43130.390269                       # average overall mshr miss latency
system.cpu.dcache.overall_avg_mshr_miss_latency::total 43130.390269                       # average overall mshr miss latency
system.cpu.dcache.replacements                 874676                       # number of replacements
system.cpu.dcache.ReadReq_hits::.cpu.data     40585266                       # number of ReadReq hits
system.cpu.dcache.ReadReq_hits::total        40585266                       # number of ReadReq hits
system.cpu.dcache.ReadReq_misses::.cpu.data       526400                       # number of ReadReq misses
system.cpu.dcache.ReadReq_misses::total        526400                       # number of ReadReq misses
system.cpu.dcache.ReadReq_miss_latency::.cpu.data  18197843000                       # number of ReadReq miss cycles
system.cpu.dcache.ReadReq_miss_latency::total  18197843000                       # number of ReadReq miss cycles
system.cpu.dcache.ReadReq_accesses::.cpu.data     41111666                       # number of ReadReq accesses(hits+misses)
system.cpu.dcache.ReadReq_accesses::total     41111666                       # number of ReadReq accesses(hits+misses)
system.cpu.dcache.ReadReq_miss_rate::.cpu.data     0.012804                       # miss rate for ReadReq accesses
system.cpu.dcache.ReadReq_miss_rate::total     0.012804                       # miss rate for ReadReq accesses
system.cpu.dcache.ReadReq_avg_miss_latency::.cpu.data 34570.370441                       # average ReadReq miss latency
system.cpu.dcache.ReadReq_avg_miss_latency::total 34570.370441                       # average ReadReq miss latency
system.cpu.dcache.ReadReq_mshr_hits::.cpu.data          395                       # number of ReadReq MSHR hits
system.cpu.dcache.ReadReq_mshr_hits::total          395                       # number of ReadReq MSHR hits
system.cpu.dcache.ReadReq_mshr_misses::.cpu.data       526005                       # number of ReadReq MSHR misses
system.cpu.dcache.ReadReq_mshr_misses::total       526005                       # number of ReadReq MSHR misses
system.cpu.dcache.ReadReq_mshr_miss_latency::.cpu.data  17131064000                       # number of ReadReq MSHR miss cycles
system.cpu.dcache.ReadReq_mshr_miss_latency::total  17131064000                       # number of ReadReq MSHR miss cycles
system.cpu.dcache.ReadReq_mshr_miss_rate::.cpu.data     0.012795                       # mshr miss rate for ReadReq accesses
system.cpu.dcache.ReadReq_mshr_miss_rate::total     0.012795                       # mshr miss rate for ReadReq accesses
system.cpu.dcache.ReadReq_avg_mshr_miss_latency::.cpu.data 32568.253153                       # average ReadReq mshr miss latency
system.cpu.dcache.ReadReq_avg_mshr_miss_latency::total 32568.253153                       # average ReadReq mshr miss latency
system.cpu.dcache.WriteReq_hits::.cpu.data     10555039                       # number of WriteReq hits
system.cpu.dcache.WriteReq_hits::total       10555039                       # number of WriteReq hits
system.cpu.dcache.WriteReq_misses::.cpu.data       394043                       # number of WriteReq misses
system.cpu.dcache.WriteReq_misses::total       394043                       # number of WriteReq misses
system.cpu.dcache.WriteReq_miss_latency::.cpu.data  22018527000                       # number of WriteReq miss cycles
system.cpu.dcache.WriteReq_miss_latency::total  22018527000                       # number of WriteReq miss cycles
system.cpu.dcache.WriteReq_accesses::.cpu.data     10949082                       # number of WriteReq accesses(hits+misses)
system.cpu.dcache.WriteReq_accesses::total     10949082                       # number of WriteReq accesses(hits+misses)
system.cpu.dcache.WriteReq_miss_rate::.cpu.data     0.035989                       # miss rate for WriteReq accesses
system.cpu.dcache.WriteReq_miss_rate::total     0.035989                       # miss rate for WriteReq accesses
system.cpu.dcache.WriteReq_avg_miss_latency::.cpu.data 55878.487881                       # average WriteReq miss latency
system.cpu.dcache.WriteReq_avg_miss_latency::total 55878.487881                       # average WriteReq miss latency
system.cpu.dcache.WriteReq_mshr_hits::.cpu.data        52803                       # number of WriteReq MSHR hits
system.cpu.dcache.WriteReq_mshr_hits::total        52803                       # number of WriteReq MSHR hits
system.cpu.dcache.WriteReq_mshr_misses::.cpu.data       341240                       # number of WriteReq MSHR misses
system.cpu.dcache.WriteReq_mshr_misses::total       341240                       # number of WriteReq MSHR misses
system.cpu.dcache.WriteReq_mshr_miss_latency::.cpu.data  19781900000                       # number of WriteReq MSHR miss cycles
system.cpu.dcache.WriteReq_mshr_miss_latency::total  19781900000                       # number of WriteReq MSHR miss cycles
system.cpu.dcache.WriteReq_mshr_miss_rate::.cpu.data     0.031166                       # mshr miss rate for WriteReq accesses
system.cpu.dcache.WriteReq_mshr_miss_rate::total     0.031166                       # mshr miss rate for WriteReq accesses
system.cpu.dcache.WriteReq_avg_mshr_miss_latency::.cpu.data 57970.636502                       # average WriteReq mshr miss latency
system.cpu.dcache.WriteReq_avg_mshr_miss_latency::total 57970.636502                       # average WriteReq mshr miss latency
system.cpu.dcache.SoftPFReq_hits::.cpu.data          472                       # number of SoftPFReq hits
system.cpu.dcache.SoftPFReq_hits::total           472                       # number of SoftPFReq hits
system.cpu.dcache.SoftPFReq_misses::.cpu.data         7947                       # number of SoftPFReq misses
system.cpu.dcache.SoftPFReq_misses::total         7947                       # number of SoftPFReq misses
system.cpu.dcache.SoftPFReq_accesses::.cpu.data         8419                       # number of SoftPFReq accesses(hits+misses)
system.cpu.dcache.SoftPFReq_accesses::total         8419                       # number of SoftPFReq accesses(hits+misses)
system.cpu.dcache.SoftPFReq_miss_rate::.cpu.data     0.943936                       # miss rate for SoftPFReq accesses
system.cpu.dcache.SoftPFReq_miss_rate::total     0.943936                       # miss rate for SoftPFReq accesses
system.cpu.dcache.SoftPFReq_mshr_misses::.cpu.data         7943                       # number of SoftPFReq MSHR misses
system.cpu.dcache.SoftPFReq_mshr_misses::total         7943                       # number of SoftPFReq MSHR misses
system.cpu.dcache.SoftPFReq_mshr_miss_latency::.cpu.data    834235999                       # number of SoftPFReq MSHR miss cycles
system.cpu.dcache.SoftPFReq_mshr_miss_latency::total    834235999                       # number of SoftPFReq MSHR miss cycles
system.cpu.dcache.SoftPFReq_mshr_miss_rate::.cpu.data     0.943461                       # mshr miss rate for SoftPFReq accesses
system.cpu.dcache.SoftPFReq_mshr_miss_rate::total     0.943461                       # mshr miss rate for SoftPFReq accesses
system.cpu.dcache.SoftPFReq_avg_mshr_miss_latency::.cpu.data 105027.823115                       # average SoftPFReq mshr miss latency
system.cpu.dcache.SoftPFReq_avg_mshr_miss_latency::total 105027.823115                       # average SoftPFReq mshr miss latency
system.cpu.dcache.LoadLockedReq_hits::.cpu.data           38                       # number of LoadLockedReq hits
system.cpu.dcache.LoadLockedReq_hits::total           38                       # number of LoadLockedReq hits
system.cpu.dcache.LoadLockedReq_accesses::.cpu.data           38                       # number of LoadLockedReq accesses(hits+misses)
system.cpu.dcache.LoadLockedReq_accesses::total           38                       # number of LoadLockedReq accesses(hits+misses)
system.cpu.dcache.StoreCondReq_hits::.cpu.data           38                       # number of StoreCondReq hits
system.cpu.dcache.StoreCondReq_hits::total           38                       # number of StoreCondReq hits
system.cpu.dcache.StoreCondReq_accesses::.cpu.data           38                       # number of StoreCondReq accesses(hits+misses)
system.cpu.dcache.StoreCondReq_accesses::total           38                       # number of StoreCondReq accesses(hits+misses)
system.cpu.dcache.power_state.pwrStateResidencyTicks::UNDEFINED 163796542000                       # Cumulative time (in ticks) in various power states
system.cpu.dcache.tags.tagsinuse           507.417804                       # Cycle average of tags in use
system.cpu.dcache.tags.total_refs            52016041                       # Total number of references to valid blocks.
system.cpu.dcache.tags.sampled_refs            875188                       # Sample count of references to valid blocks.
system.cpu.dcache.tags.avg_refs             59.434134                       # Average number of references to valid blocks.
system.cpu.dcache.tags.warmup_cycle            223000                       # Cycle when the warmup percentage was hit.
system.cpu.dcache.tags.occ_blocks::.cpu.data   507.417804                       # Average occupied blocks per requestor
system.cpu.dcache.tags.occ_percent::.cpu.data     0.991050                       # Average percentage of cache occupancy
system.cpu.dcache.tags.occ_percent::total     0.991050                       # Average percentage of cache occupancy
system.cpu.dcache.tags.occ_task_id_blocks::1024          512                       # Occupied blocks per task id
system.cpu.dcache.tags.age_task_id_blocks_1024::0           32                       # Occupied blocks per task id
system.cpu.dcache.tags.age_task_id_blocks_1024::1          239                       # Occupied blocks per task id
system.cpu.dcache.tags.age_task_id_blocks_1024::2          240                       # Occupied blocks per task id
system.cpu.dcache.tags.age_task_id_blocks_1024::3            1                       # Occupied blocks per task id
system.cpu.dcache.tags.occ_task_id_percent::1024            1                       # Percentage of cache occupancy per task id
system.cpu.dcache.tags.tag_accesses         105013674                       # Number of tag accesses
system.cpu.dcache.tags.data_accesses        105013674                       # Number of data accesses
system.cpu.dcache.tags.power_state.pwrStateResidencyTicks::UNDEFINED 163796542000                       # Cumulative time (in ticks) in various power states
system.cpu.dtb.instHits                             0                       # ITB inst hits
system.cpu.dtb.instMisses                           0                       # ITB inst misses
system.cpu.dtb.readHits                             0                       # DTB read hits
system.cpu.dtb.readMisses                           0                       # DTB read misses
system.cpu.dtb.writeHits                            0                       # DTB write hits
system.cpu.dtb.writeMisses                          0                       # DTB write misses
system.cpu.dtb.inserts                              0                       # Number of times an entry is inserted into the TLB
system.cpu.dtb.flushTlb                             0                       # Number of times complete TLB was flushed
system.cpu.dtb.flushTlbMva                          0                       # Number of times TLB was flushed by MVA
system.cpu.dtb.flushTlbMvaAsid                      0                       # Number of times TLB was flushed by MVA & ASID
system.cpu.dtb.flushTlbAsid                         0                       # Number of times TLB was flushed by ASID
system.cpu.dtb.flushedEntries                       0                       # Number of entries that have been flushed from TLB
system.cpu.dtb.alignFaults                          0                       # Number of TLB faults due to alignment restrictions
system.cpu.dtb.prefetchFaults                       0                       # Number of TLB faults due to prefetch
system.cpu.dtb.domainFaults                         0                       # Number of TLB faults due to domain restrictions
system.cpu.dtb.permsFaults                          0                       # Number of TLB faults due to permissions restrictions
system.cpu.dtb.readAccesses                         0                       # DTB read accesses
system.cpu.dtb.writeAccesses                        0                       # DTB write accesses
system.cpu.dtb.instAccesses                         0                       # ITB inst accesses
system.cpu.dtb.hits                                 0                       # Total TLB (inst and data) hits
system.cpu.dtb.misses                               0                       # Total TLB (inst and data) misses
system.cpu.dtb.accesses                             0                       # Total TLB (inst and data) accesses
system.cpu.dtb.stage2_mmu.stage2_tlb.instHits            0                       # ITB inst hits
system.cpu.dtb.stage2_mmu.stage2_tlb.instMisses            0                       # ITB inst misses
system.cpu.dtb.stage2_mmu.stage2_tlb.readHits            0                       # DTB read hits
system.cpu.dtb.stage2_mmu.stage2_tlb.readMisses            0                       # DTB read misses
system.cpu.dtb.stage2_mmu.stage2_tlb.writeHits            0                       # DTB write hits
system.cpu.dtb.stage2_mmu.stage2_tlb.writeMisses            0                       # DTB write misses
system.cpu.dtb.stage2_mmu.stage2_tlb.inserts            0                       # Number of times an entry is inserted into the TLB
system.cpu.dtb.stage2_mmu.stage2_tlb.flushTlb            0                       # Number of times complete TLB was flushed
system.cpu.dtb.stage2_mmu.stage2_tlb.flushTlbMva            0                       # Number of times TLB was flushed by MVA
system.cpu.dtb.stage2_mmu.stage2_tlb.flushTlbMvaAsid            0                       # Number of times TLB was flushed by MVA & ASID
system.cpu.dtb.stage2_mmu.stage2_tlb.flushTlbAsid            0                       # Number of times TLB was flushed by ASID
system.cpu.dtb.stage2_mmu.stage2_tlb.flushedEntries            0                       # Number of entries that have been flushed from TLB
system.cpu.dtb.stage2_mmu.stage2_tlb.alignFaults            0                       # Number of TLB faults due to alignment restrictions
system.cpu.dtb.stage2_mmu.stage2_tlb.prefetchFaults            0                       # Number of TLB faults due to prefetch
system.cpu.dtb.stage2_mmu.stage2_tlb.domainFaults            0                       # Number of TLB faults due to domain restrictions
system.cpu.dtb.stage2_mmu.stage2_tlb.permsFaults            0                       # Number of TLB faults due to permissions restrictions
system.cpu.dtb.stage2_mmu.stage2_tlb.readAccesses            0                       # DTB read accesses
system.cpu.dtb.stage2_mmu.stage2_tlb.writeAccesses            0                       # DTB write accesses
system.cpu.dtb.stage2_mmu.stage2_tlb.instAccesses            0                       # ITB inst accesses
system.cpu.dtb.stage2_mmu.stage2_tlb.hits            0                       # Total TLB (inst and data) hits
system.cpu.dtb.stage2_mmu.stage2_tlb.misses            0                       # Total TLB (inst and data) misses
system.cpu.dtb.stage2_mmu.stage2_tlb.accesses            0                       # Total TLB (inst and data) accesses
system.cpu.dtb.stage2_mmu.stage2_tlb.walker.walks            0                       # Table walker walks requested
system.cpu.dtb.stage2_mmu.stage2_tlb.walker.requestOrigin_Requested::Data            0                       # Table walker requests started/completed, data/inst
system.cpu.dtb.stage2_mmu.stage2_tlb.walker.requestOrigin_Requested::Inst            0                       # Table walker requests started/completed, data/inst
system.cpu.dtb.stage2_mmu.stage2_tlb.walker.requestOrigin_Requested::total            0                       # Table walker requests started/completed, data/inst
system.cpu.dtb.stage2_mmu.stage2_tlb.walker.requestOrigin_Completed::Data            0                       # Table walker requests started/completed, data/inst
system.cpu.dtb.stage2_mmu.stage2_tlb.walker.requestOrigin_Completed::Inst            0                       # Table walker requests started/completed, data/inst
system.cpu.dtb.stage2_mmu.stage2_tlb.walker.requestOrigin_Completed::total            0                       # Table walker requests started/completed, data/inst
system.cpu.dtb.stage2_mmu.stage2_tlb.walker.requestOrigin::total            0                       # Table walker requests started/completed, data/inst
system.cpu.dtb.stage2_mmu.stage2_tlb.walker.power_state.pwrStateResidencyTicks::UNDEFINED 163796542000                       # Cumulative time (in ticks) in various power states
system.cpu.dtb.walker.walks                         0                       # Table walker walks requested
system.cpu.dtb.walker.requestOrigin_Requested::Data            0                       # Table walker requests started/completed, data/inst
system.cpu.dtb.walker.requestOrigin_Requested::Inst            0                       # Table walker requests started/completed, data/inst
system.cpu.dtb.walker.requestOrigin_Requested::total            0                       # Table walker requests started/completed, data/inst
system.cpu.dtb.walker.requestOrigin_Completed::Data            0                       # Table walker requests started/completed, data/inst
system.cpu.dtb.walker.requestOrigin_Completed::Inst            0                       # Table walker requests started/completed, data/inst
system.cpu.dtb.walker.requestOrigin_Completed::total            0                       # Table walker requests started/completed, data/inst
system.cpu.dtb.walker.requestOrigin::total            0                       # Table walker requests started/completed, data/inst
system.cpu.dtb.walker.power_state.pwrStateResidencyTicks::UNDEFINED 163796542000                       # Cumulative time (in ticks) in various power states
system.cpu.fetch2.intInstructions            42685777                       # Number of integer instructions successfully decoded
system.cpu.fetch2.fpInstructions                    0                       # Number of floating point instructions successfully decoded
system.cpu.fetch2.vecInstructions                   0                       # Number of SIMD instructions successfully decoded
system.cpu.fetch2.loadInstructions           43475047                       # Number of memory load instructions successfully decoded
system.cpu.fetch2.storeInstructions          11024922                       # Number of memory store instructions successfully decoded
system.cpu.fetch2.amoInstructions                   0                       # Number of memory atomic instructions successfully decoded
system.cpu.icache.demand_hits::.cpu.inst     10278001                       # number of demand (read+write) hits
system.cpu.icache.demand_hits::total         10278001                       # number of demand (read+write) hits
system.cpu.icache.overall_hits::.cpu.inst     10278001                       # number of overall hits
system.cpu.icache.overall_hits::total        10278001                       # number of overall hits
system.cpu.icache.demand_misses::.cpu.inst          826                       # number of demand (read+write) misses
system.cpu.icache.demand_misses::total            826                       # number of demand (read+write) misses
system.cpu.icache.overall_misses::.cpu.inst          826                       # number of overall misses
system.cpu.icache.overall_misses::total           826                       # number of overall misses
system.cpu.icache.demand_miss_latency::.cpu.inst     75215000                       # number of demand (read+write) miss cycles
system.cpu.icache.demand_miss_latency::total     75215000                       # number of demand (read+write) miss cycles
system.cpu.icache.overall_miss_latency::.cpu.inst     75215000                       # number of overall miss cycles
system.cpu.icache.overall_miss_latency::total     75215000                       # number of overall miss cycles
system.cpu.icache.demand_accesses::.cpu.inst     10278827                       # number of demand (read+write) accesses
system.cpu.icache.demand_accesses::total     10278827                       # number of demand (read+write) accesses
system.cpu.icache.overall_accesses::.cpu.inst     10278827                       # number of overall (read+write) accesses
system.cpu.icache.overall_accesses::total     10278827                       # number of overall (read+write) accesses
system.cpu.icache.demand_miss_rate::.cpu.inst     0.000080                       # miss rate for demand accesses
system.cpu.icache.demand_miss_rate::total     0.000080                       # miss rate for demand accesses
system.cpu.icache.overall_miss_rate::.cpu.inst     0.000080                       # miss rate for overall accesses
system.cpu.icache.overall_miss_rate::total     0.000080                       # miss rate for overall accesses
system.cpu.icache.demand_avg_miss_latency::.cpu.inst 91059.322034                       # average overall miss latency
system.cpu.icache.demand_avg_miss_latency::total 91059.322034                       # average overall miss latency
system.cpu.icache.overall_avg_miss_latency::.cpu.inst 91059.322034                       # average overall miss latency
system.cpu.icache.overall_avg_miss_latency::total 91059.322034                       # average overall miss latency
system.cpu.icache.blocked_cycles::no_mshrs            0                       # number of cycles access was blocked
system.cpu.icache.blocked_cycles::no_targets            0                       # number of cycles access was blocked
system.cpu.icache.blocked::no_mshrs                 0                       # number of cycles access was blocked
system.cpu.icache.blocked::no_targets               0                       # number of cycles access was blocked
system.cpu.icache.avg_blocked_cycles::no_mshrs          nan                       # average number of cycles each access was blocked
system.cpu.icache.avg_blocked_cycles::no_targets          nan                       # average number of cycles each access was blocked
system.cpu.icache.writebacks::.writebacks          570                       # number of writebacks
system.cpu.icache.writebacks::total               570                       # number of writebacks
system.cpu.icache.demand_mshr_misses::.cpu.inst          826                       # number of demand (read+write) MSHR misses
system.cpu.icache.demand_mshr_misses::total          826                       # number of demand (read+write) MSHR misses
system.cpu.icache.overall_mshr_misses::.cpu.inst          826                       # number of overall MSHR misses
system.cpu.icache.overall_mshr_misses::total          826                       # number of overall MSHR misses
system.cpu.icache.demand_mshr_miss_latency::.cpu.inst     73563000                       # number of demand (read+write) MSHR miss cycles
system.cpu.icache.demand_mshr_miss_latency::total     73563000                       # number of demand (read+write) MSHR miss cycles
system.cpu.icache.overall_mshr_miss_latency::.cpu.inst     73563000                       # number of overall MSHR miss cycles
system.cpu.icache.overall_mshr_miss_latency::total     73563000                       # number of overall MSHR miss cycles
system.cpu.icache.demand_mshr_miss_rate::.cpu.inst     0.000080                       # mshr miss rate for demand accesses
system.cpu.icache.demand_mshr_miss_rate::total     0.000080                       # mshr miss rate for demand accesses
system.cpu.icache.overall_mshr_miss_rate::.cpu.inst     0.000080                       # mshr miss rate for overall accesses
system.cpu.icache.overall_mshr_miss_rate::total     0.000080                       # mshr miss rate for overall accesses
system.cpu.icache.demand_avg_mshr_miss_latency::.cpu.inst 89059.322034                       # average overall mshr miss latency
system.cpu.icache.demand_avg_mshr_miss_latency::total 89059.322034                       # average overall mshr miss latency
system.cpu.icache.overall_avg_mshr_miss_latency::.cpu.inst 89059.322034                       # average overall mshr miss latency
system.cpu.icache.overall_avg_mshr_miss_latency::total 89059.322034                       # average overall mshr miss latency
system.cpu.icache.replacements                    570                       # number of replacements
system.cpu.icache.ReadReq_hits::.cpu.inst     10278001                       # number of ReadReq hits
system.cpu.icache.ReadReq_hits::total        10278001                       # number of ReadReq hits
system.cpu.icache.ReadReq_misses::.cpu.inst          826                       # number of ReadReq misses
system.cpu.icache.ReadReq_misses::total           826                       # number of ReadReq misses
system.cpu.icache.ReadReq_miss_latency::.cpu.inst     75215000                       # number of ReadReq miss cycles
system.cpu.icache.ReadReq_miss_latency::total     75215000                       # number of ReadReq miss cycles
system.cpu.icache.ReadReq_accesses::.cpu.inst     10278827                       # number of ReadReq accesses(hits+misses)
system.cpu.icache.ReadReq_accesses::total     10278827                       # number of ReadReq accesses(hits+misses)
system.cpu.icache.ReadReq_miss_rate::.cpu.inst     0.000080                       # miss rate for ReadReq accesses
system.cpu.icache.ReadReq_miss_rate::total     0.000080                       # miss rate for ReadReq accesses
system.cpu.icache.ReadReq_avg_miss_latency::.cpu.inst 91059.322034                       # average ReadReq miss latency
system.cpu.icache.ReadReq_avg_miss_latency::total 91059.322034                       # average ReadReq miss latency
system.cpu.icache.ReadReq_mshr_misses::.cpu.inst          826                       # number of ReadReq MSHR misses
system.cpu.icache.ReadReq_mshr_misses::total          826                       # number of ReadReq MSHR misses
system.cpu.icache.ReadReq_mshr_miss_latency::.cpu.inst     73563000                       # number of ReadReq MSHR miss cycles
system.cpu.icache.ReadReq_mshr_miss_latency::total     73563000                       # number of ReadReq MSHR miss cycles
system.cpu.icache.ReadReq_mshr_miss_rate::.cpu.inst     0.000080                       # mshr miss rate for ReadReq accesses
system.cpu.icache.ReadReq_mshr_miss_rate::total     0.000080                       # mshr miss rate for ReadReq accesses
system.cpu.icache.ReadReq_avg_mshr_miss_latency::.cpu.inst 89059.322034                       # average ReadReq mshr miss latency
system.cpu.icache.ReadReq_avg_mshr_miss_latency::total 89059.322034                       # average ReadReq mshr miss latency
system.cpu.icache.power_state.pwrStateResidencyTicks::UNDEFINED 163796542000                       # Cumulative time (in ticks) in various power states
system.cpu.icache.tags.tagsinuse           249.754171                       # Cycle average of tags in use
system.cpu.icache.tags.total_refs            10278827                       # Total number of references to valid blocks.
system.cpu.icache.tags.sampled_refs               826                       # Sample count of references to valid blocks.
system.cpu.icache.tags.avg_refs          12444.100484                       # Average number of references to valid blocks.
system.cpu.icache.tags.warmup_cycle            108000                       # Cycle when the warmup percentage was hit.
system.cpu.icache.tags.occ_blocks::.cpu.inst   249.754171                       # Average occupied blocks per requestor
system.cpu.icache.tags.occ_percent::.cpu.inst     0.975602                       # Average percentage of cache occupancy
system.cpu.icache.tags.occ_percent::total     0.975602                       # Average percentage of cache occupancy
system.cpu.icache.tags.occ_task_id_blocks::1024          256                       # Occupied blocks per task id
system.cpu.icache.tags.age_task_id_blocks_1024::4          256                       # Occupied blocks per task id
system.cpu.icache.tags.occ_task_id_percent::1024            1                       # Percentage of cache occupancy per task id
system.cpu.icache.tags.tag_accesses          20558480                       # Number of tag accesses
system.cpu.icache.tags.data_accesses         20558480                       # Number of data accesses
system.cpu.icache.tags.power_state.pwrStateResidencyTicks::UNDEFINED 163796542000                       # Cumulative time (in ticks) in various power states
system.cpu.itb.instHits                             0                       # ITB inst hits
system.cpu.itb.instMisses                           0                       # ITB inst misses
system.cpu.itb.readHits                             0                       # DTB read hits
system.cpu.itb.readMisses                           0                       # DTB read misses
system.cpu.itb.writeHits                            0                       # DTB write hits
system.cpu.itb.writeMisses                          0                       # DTB write misses
system.cpu.itb.inserts                              0                       # Number of times an entry is inserted into the TLB
system.cpu.itb.flushTlb                             0                       # Number of times complete TLB was flushed
system.cpu.itb.flushTlbMva                          0                       # Number of times TLB was flushed by MVA
system.cpu.itb.flushTlbMvaAsid                      0                       # Number of times TLB was flushed by MVA & ASID
system.cpu.itb.flushTlbAsid                         0                       # Number of times TLB was flushed by ASID
system.cpu.itb.flushedEntries                       0                       # Number of entries that have been flushed from TLB
system.cpu.itb.alignFaults                          0                       # Number of TLB faults due to alignment restrictions
system.cpu.itb.prefetchFaults                       0                       # Number of TLB faults due to prefetch
system.cpu.itb.domainFaults                         0                       # Number of TLB faults due to domain restrictions
system.cpu.itb.permsFaults                          0                       # Number of TLB faults due to permissions restrictions
system.cpu.itb.readAccesses                         0                       # DTB read accesses
system.cpu.itb.writeAccesses                        0                       # DTB write accesses
system.cpu.itb.instAccesses                         0                       # ITB inst accesses
system.cpu.itb.hits                                 0                       # Total TLB (inst and data) hits
system.cpu.itb.misses                               0                       # Total TLB (inst and data) misses
system.cpu.itb.accesses                             0                       # Total TLB (inst and data) accesses
system.cpu.itb.stage2_mmu.stage2_tlb.instHits            0                       # ITB inst hits
system.cpu.itb.stage2_mmu.stage2_tlb.instMisses            0                       # ITB inst misses
system.cpu.itb.stage2_mmu.stage2_tlb.readHits            0                       # DTB read hits
system.cpu.itb.stage2_mmu.stage2_tlb.readMisses            0                       # DTB read misses
system.cpu.itb.stage2_mmu.stage2_tlb.writeHits            0                       # DTB write hits
system.cpu.itb.stage2_mmu.stage2_tlb.writeMisses            0                       # DTB write misses
system.cpu.itb.stage2_mmu.stage2_tlb.inserts            0                       # Number of times an entry is inserted into the TLB
system.cpu.itb.stage2_mmu.stage2_tlb.flushTlb            0                       # Number of times complete TLB was flushed
system.cpu.itb.stage2_mmu.stage2_tlb.flushTlbMva            0                       # Number of times TLB was flushed by MVA
system.cpu.itb.stage2_mmu.stage2_tlb.flushTlbMvaAsid            0                       # Number of times TLB was flushed by MVA & ASID
system.cpu.itb.stage2_mmu.stage2_tlb.flushTlbAsid            0                       # Number of times TLB was flushed by ASID
system.cpu.itb.stage2_mmu.stage2_tlb.flushedEntries            0                       # Number of entries that have been flushed from TLB
system.cpu.itb.stage2_mmu.stage2_tlb.alignFaults            0                       # Number of TLB faults due to alignment restrictions
system.cpu.itb.stage2_mmu.stage2_tlb.prefetchFaults            0                       # Number of TLB faults due to prefetch
system.cpu.itb.stage2_mmu.stage2_tlb.domainFaults            0                       # Number of TLB faults due to domain restrictions
system.cpu.itb.stage2_mmu.stage2_tlb.permsFaults            0                       # Number of TLB faults due to permissions restrictions
system.cpu.itb.stage2_mmu.stage2_tlb.readAccesses            0                       # DTB read accesses
system.cpu.itb.stage2_mmu.stage2_tlb.writeAccesses            0                       # DTB write accesses
system.cpu.itb.stage2_mmu.stage2_tlb.instAccesses            0                       # ITB inst accesses
system.cpu.itb.stage2_mmu.stage2_tlb.hits            0                       # Total TLB (inst and data) hits
system.cpu.itb.stage2_mmu.stage2_tlb.misses            0                       # Total TLB (inst and data) misses
system.cpu.itb.stage2_mmu.stage2_tlb.accesses            0                       # Total TLB (inst and data) accesses
system.cpu.itb.stage2_mmu.stage2_tlb.walker.walks            0                       # Table walker walks requested
system.cpu.itb.stage2_mmu.stage2_tlb.walker.requestOrigin_Requested::Data            0                       # Table walker requests started/completed, data/inst
system.cpu.itb.stage2_mmu.stage2_tlb.walker.requestOrigin_Requested::Inst            0                       # Table walker requests started/completed, data/inst
system.cpu.itb.stage2_mmu.stage2_tlb.walker.requestOrigin_Requested::total            0                       # Table walker requests started/completed, data/inst
system.cpu.itb.stage2_mmu.stage2_tlb.walker.requestOrigin_Completed::Data            0                       # Table walker requests started/completed, data/inst
system.cpu.itb.stage2_mmu.stage2_tlb.walker.requestOrigin_Completed::Inst            0                       # Table walker requests started/completed, data/inst
system.cpu.itb.stage2_mmu.stage2_tlb.walker.requestOrigin_Completed::total            0                       # Table walker requests started/completed, data/inst
system.cpu.itb.stage2_mmu.stage2_tlb.walker.requestOrigin::total            0                       # Table walker requests started/completed, data/inst
system.cpu.itb.stage2_mmu.stage2_tlb.walker.power_state.pwrStateResidencyTicks::UNDEFINED 163796542000                       # Cumulative time (in ticks) in various power states
system.cpu.itb.walker.walks                         0                       # Table walker walks requested
system.cpu.itb.walker.requestOrigin_Requested::Data            0                       # Table walker requests started/completed, data/inst
system.cpu.itb.walker.requestOrigin_Requested::Inst            0                       # Table walker requests started/completed, data/inst
system.cpu.itb.walker.requestOrigin_Requested::total            0                       # Table walker requests started/completed, data/inst
system.cpu.itb.walker.requestOrigin_Completed::Data            0                       # Table walker requests started/completed, data/inst
system.cpu.itb.walker.requestOrigin_Completed::Inst            0                       # Table walker requests started/completed, data/inst
system.cpu.itb.walker.requestOrigin_Completed::total            0                       # Table walker requests started/completed, data/inst
system.cpu.itb.walker.requestOrigin::total            0                       # Table walker requests started/completed, data/inst
system.cpu.itb.walker.power_state.pwrStateResidencyTicks::UNDEFINED 163796542000                       # Cumulative time (in ticks) in various power states
system.cpu.power_state.pwrStateResidencyTicks::ON 163796542000                       # Cumulative time (in ticks) in various power states
system.cpu.thread17522.numInsts             100000001                       # Number of Instructions committed
system.cpu.thread17522.numOps               100196356                       # Number of Ops committed
system.cpu.thread17522.numMemRefs                   0                       # Number of Memory References
system.cpu_clk_domain.clock                      1000                       # Clock period in ticks
system.cpu_voltage_domain.voltage                   1                       # Voltage in Volts
system.l2.demand_hits::.cpu.inst                  142                       # number of demand (read+write) hits
system.l2.demand_hits::.cpu.data               674010                       # number of demand (read+write) hits
system.l2.demand_hits::total                   674152                       # number of demand (read+write) hits
system.l2.overall_hits::.cpu.inst                 142                       # number of overall hits
system.l2.overall_hits::.cpu.data              674010                       # number of overall hits
system.l2.overall_hits::total                  674152                       # number of overall hits
system.l2.demand_misses::.cpu.inst                684                       # number of demand (read+write) misses
system.l2.demand_misses::.cpu.data             201178                       # number of demand (read+write) misses
system.l2.demand_misses::total                 201862                       # number of demand (read+write) misses
system.l2.overall_misses::.cpu.inst               684                       # number of overall misses
system.l2.overall_misses::.cpu.data            201178                       # number of overall misses
system.l2.overall_misses::total                201862                       # number of overall misses
system.l2.demand_miss_latency::.cpu.inst     68060000                       # number of demand (read+write) miss cycles
system.l2.demand_miss_latency::.cpu.data  20943191000                       # number of demand (read+write) miss cycles
system.l2.demand_miss_latency::total      21011251000                       # number of demand (read+write) miss cycles
system.l2.overall_miss_latency::.cpu.inst     68060000                       # number of overall miss cycles
system.l2.overall_miss_latency::.cpu.data  20943191000                       # number of overall miss cycles
system.l2.overall_miss_latency::total     21011251000                       # number of overall miss cycles
system.l2.demand_accesses::.cpu.inst              826                       # number of demand (read+write) accesses
system.l2.demand_accesses::.cpu.data           875188                       # number of demand (read+write) accesses
system.l2.demand_accesses::total               876014                       # number of demand (read+write) accesses
system.l2.overall_accesses::.cpu.inst             826                       # number of overall (read+write) accesses
system.l2.overall_accesses::.cpu.data          875188                       # number of overall (read+write) accesses
system.l2.overall_accesses::total              876014                       # number of overall (read+write) accesses
system.l2.demand_miss_rate::.cpu.inst        0.828087                       # miss rate for demand accesses
system.l2.demand_miss_rate::.cpu.data        0.229868                       # miss rate for demand accesses
system.l2.demand_miss_rate::total            0.230432                       # miss rate for demand accesses
system.l2.overall_miss_rate::.cpu.inst       0.828087                       # miss rate for overall accesses
system.l2.overall_miss_rate::.cpu.data       0.229868                       # miss rate for overall accesses
system.l2.overall_miss_rate::total           0.230432                       # miss rate for overall accesses
system.l2.demand_avg_miss_latency::.cpu.inst 99502.923977                       # average overall miss latency
system.l2.demand_avg_miss_latency::.cpu.data 104102.789569                       # average overall miss latency
system.l2.demand_avg_miss_latency::total 104087.203139                       # average overall miss latency
system.l2.overall_avg_miss_latency::.cpu.inst 99502.923977                       # average overall miss latency
system.l2.overall_avg_miss_latency::.cpu.data 104102.789569                       # average overall miss latency
system.l2.overall_avg_miss_latency::total 104087.203139                       # average overall miss latency
system.l2.blocked_cycles::no_mshrs                  0                       # number of cycles access was blocked
system.l2.blocked_cycles::no_targets                0                       # number of cycles access was blocked
system.l2.blocked::no_mshrs                         0                       # number of cycles access was blocked
system.l2.blocked::no_targets                       0                       # number of cycles access was blocked
system.l2.avg_blocked_cycles::no_mshrs            nan                       # average number of cycles each access was blocked
system.l2.avg_blocked_cycles::no_targets          nan                       # average number of cycles each access was blocked
system.l2.writebacks::.writebacks              111106                       # number of writebacks
system.l2.writebacks::total                    111106                       # number of writebacks
system.l2.demand_mshr_hits::.cpu.data               6                       # number of demand (read+write) MSHR hits
system.l2.demand_mshr_hits::total                   6                       # number of demand (read+write) MSHR hits
system.l2.overall_mshr_hits::.cpu.data              6                       # number of overall MSHR hits
system.l2.overall_mshr_hits::total                  6                       # number of overall MSHR hits
system.l2.demand_mshr_misses::.cpu.inst           684                       # number of demand (read+write) MSHR misses
system.l2.demand_mshr_misses::.cpu.data        201172                       # number of demand (read+write) MSHR misses
system.l2.demand_mshr_misses::total            201856                       # number of demand (read+write) MSHR misses
system.l2.overall_mshr_misses::.cpu.inst          684                       # number of overall MSHR misses
system.l2.overall_mshr_misses::.cpu.data       201172                       # number of overall MSHR misses
system.l2.overall_mshr_misses::total           201856                       # number of overall MSHR misses
system.l2.demand_mshr_miss_latency::.cpu.inst     54380000                       # number of demand (read+write) MSHR miss cycles
system.l2.demand_mshr_miss_latency::.cpu.data  16919291000                       # number of demand (read+write) MSHR miss cycles
system.l2.demand_mshr_miss_latency::total  16973671000                       # number of demand (read+write) MSHR miss cycles
system.l2.overall_mshr_miss_latency::.cpu.inst     54380000                       # number of overall MSHR miss cycles
system.l2.overall_mshr_miss_latency::.cpu.data  16919291000                       # number of overall MSHR miss cycles
system.l2.overall_mshr_miss_latency::total  16973671000                       # number of overall MSHR miss cycles
system.l2.demand_mshr_miss_rate::.cpu.inst     0.828087                       # mshr miss rate for demand accesses
system.l2.demand_mshr_miss_rate::.cpu.data     0.229861                       # mshr miss rate for demand accesses
system.l2.demand_mshr_miss_rate::total       0.230426                       # mshr miss rate for demand accesses
system.l2.overall_mshr_miss_rate::.cpu.inst     0.828087                       # mshr miss rate for overall accesses
system.l2.overall_mshr_miss_rate::.cpu.data     0.229861                       # mshr miss rate for overall accesses
system.l2.overall_mshr_miss_rate::total      0.230426                       # mshr miss rate for overall accesses
system.l2.demand_avg_mshr_miss_latency::.cpu.inst 79502.923977                       # average overall mshr miss latency
system.l2.demand_avg_mshr_miss_latency::.cpu.data 84103.607858                       # average overall mshr miss latency
system.l2.demand_avg_mshr_miss_latency::total 84088.018191                       # average overall mshr miss latency
system.l2.overall_avg_mshr_miss_latency::.cpu.inst 79502.923977                       # average overall mshr miss latency
system.l2.overall_avg_mshr_miss_latency::.cpu.data 84103.607858                       # average overall mshr miss latency
system.l2.overall_avg_mshr_miss_latency::total 84088.018191                       # average overall mshr miss latency
system.l2.replacements                         169336                       # number of replacements
system.l2.WritebackDirty_hits::.writebacks       795995                       # number of WritebackDirty hits
system.l2.WritebackDirty_hits::total           795995                       # number of WritebackDirty hits
system.l2.WritebackDirty_accesses::.writebacks       795995                       # number of WritebackDirty accesses(hits+misses)
system.l2.WritebackDirty_accesses::total       795995                       # number of WritebackDirty accesses(hits+misses)
system.l2.WritebackClean_hits::.writebacks          555                       # number of WritebackClean hits
system.l2.WritebackClean_hits::total              555                       # number of WritebackClean hits
system.l2.WritebackClean_accesses::.writebacks          555                       # number of WritebackClean accesses(hits+misses)
system.l2.WritebackClean_accesses::total          555                       # number of WritebackClean accesses(hits+misses)
system.l2.ReadExReq_hits::.cpu.data            205156                       # number of ReadExReq hits
system.l2.ReadExReq_hits::total                205156                       # number of ReadExReq hits
system.l2.ReadExReq_misses::.cpu.data          136084                       # number of ReadExReq misses
system.l2.ReadExReq_misses::total              136084                       # number of ReadExReq misses
system.l2.ReadExReq_miss_latency::.cpu.data  14437711000                       # number of ReadExReq miss cycles
system.l2.ReadExReq_miss_latency::total   14437711000                       # number of ReadExReq miss cycles
system.l2.ReadExReq_accesses::.cpu.data        341240                       # number of ReadExReq accesses(hits+misses)
system.l2.ReadExReq_accesses::total            341240                       # number of ReadExReq accesses(hits+misses)
system.l2.ReadExReq_miss_rate::.cpu.data     0.398793                       # miss rate for ReadExReq accesses
system.l2.ReadExReq_miss_rate::total         0.398793                       # miss rate for ReadExReq accesses
system.l2.ReadExReq_avg_miss_latency::.cpu.data 106094.110990                       # average ReadExReq miss latency
system.l2.ReadExReq_avg_miss_latency::total 106094.110990                       # average ReadExReq miss latency
system.l2.ReadExReq_mshr_misses::.cpu.data       136084                       # number of ReadExReq MSHR misses
system.l2.ReadExReq_mshr_misses::total         136084                       # number of ReadExReq MSHR misses
system.l2.ReadExReq_mshr_miss_latency::.cpu.data  11716031000                       # number of ReadExReq MSHR miss cycles
system.l2.ReadExReq_mshr_miss_latency::total  11716031000                       # number of ReadExReq MSHR miss cycles
system.l2.ReadExReq_mshr_miss_rate::.cpu.data     0.398793                       # mshr miss rate for ReadExReq accesses
system.l2.ReadExReq_mshr_miss_rate::total     0.398793                       # mshr miss rate for ReadExReq accesses
system.l2.ReadExReq_avg_mshr_miss_latency::.cpu.data 86094.110990                       # average ReadExReq mshr miss latency
system.l2.ReadExReq_avg_mshr_miss_latency::total 86094.110990                       # average ReadExReq mshr miss latency
system.l2.ReadCleanReq_hits::.cpu.inst            142                       # number of ReadCleanReq hits
system.l2.ReadCleanReq_hits::total                142                       # number of ReadCleanReq hits
system.l2.ReadCleanReq_misses::.cpu.inst          684                       # number of ReadCleanReq misses
system.l2.ReadCleanReq_misses::total              684                       # number of ReadCleanReq misses
system.l2.ReadCleanReq_miss_latency::.cpu.inst     68060000                       # number of ReadCleanReq miss cycles
system.l2.ReadCleanReq_miss_latency::total     68060000                       # number of ReadCleanReq miss cycles
system.l2.ReadCleanReq_accesses::.cpu.inst          826                       # number of ReadCleanReq accesses(hits+misses)
system.l2.ReadCleanReq_accesses::total            826                       # number of ReadCleanReq accesses(hits+misses)
system.l2.ReadCleanReq_miss_rate::.cpu.inst     0.828087                       # miss rate for ReadCleanReq accesses
system.l2.ReadCleanReq_miss_rate::total      0.828087                       # miss rate for ReadCleanReq accesses
system.l2.ReadCleanReq_avg_miss_latency::.cpu.inst 99502.923977                       # average ReadCleanReq miss latency
system.l2.ReadCleanReq_avg_miss_latency::total 99502.923977                       # average ReadCleanReq miss latency
system.l2.ReadCleanReq_mshr_misses::.cpu.inst          684                       # number of ReadCleanReq MSHR misses
system.l2.ReadCleanReq_mshr_misses::total          684                       # number of ReadCleanReq MSHR misses
system.l2.ReadCleanReq_mshr_miss_latency::.cpu.inst     54380000                       # number of ReadCleanReq MSHR miss cycles
system.l2.ReadCleanReq_mshr_miss_latency::total     54380000                       # number of ReadCleanReq MSHR miss cycles
system.l2.ReadCleanReq_mshr_miss_rate::.cpu.inst     0.828087                       # mshr miss rate for ReadCleanReq accesses
system.l2.ReadCleanReq_mshr_miss_rate::total     0.828087                       # mshr miss rate for ReadCleanReq accesses
system.l2.ReadCleanReq_avg_mshr_miss_latency::.cpu.inst 79502.923977                       # average ReadCleanReq mshr miss latency
system.l2.ReadCleanReq_avg_mshr_miss_latency::total 79502.923977                       # average ReadCleanReq mshr miss latency
system.l2.ReadSharedReq_hits::.cpu.data        468854                       # number of ReadSharedReq hits
system.l2.ReadSharedReq_hits::total            468854                       # number of ReadSharedReq hits
system.l2.ReadSharedReq_misses::.cpu.data        65094                       # number of ReadSharedReq misses
system.l2.ReadSharedReq_misses::total           65094                       # number of ReadSharedReq misses
system.l2.ReadSharedReq_miss_latency::.cpu.data   6505480000                       # number of ReadSharedReq miss cycles
system.l2.ReadSharedReq_miss_latency::total   6505480000                       # number of ReadSharedReq miss cycles
system.l2.ReadSharedReq_accesses::.cpu.data       533948                       # number of ReadSharedReq accesses(hits+misses)
system.l2.ReadSharedReq_accesses::total        533948                       # number of ReadSharedReq accesses(hits+misses)
system.l2.ReadSharedReq_miss_rate::.cpu.data     0.121911                       # miss rate for ReadSharedReq accesses
system.l2.ReadSharedReq_miss_rate::total     0.121911                       # miss rate for ReadSharedReq accesses
system.l2.ReadSharedReq_avg_miss_latency::.cpu.data 99939.779396                       # average ReadSharedReq miss latency
system.l2.ReadSharedReq_avg_miss_latency::total 99939.779396                       # average ReadSharedReq miss latency
system.l2.ReadSharedReq_mshr_hits::.cpu.data            6                       # number of ReadSharedReq MSHR hits
system.l2.ReadSharedReq_mshr_hits::total            6                       # number of ReadSharedReq MSHR hits
system.l2.ReadSharedReq_mshr_misses::.cpu.data        65088                       # number of ReadSharedReq MSHR misses
system.l2.ReadSharedReq_mshr_misses::total        65088                       # number of ReadSharedReq MSHR misses
system.l2.ReadSharedReq_mshr_miss_latency::.cpu.data   5203260000                       # number of ReadSharedReq MSHR miss cycles
system.l2.ReadSharedReq_mshr_miss_latency::total   5203260000                       # number of ReadSharedReq MSHR miss cycles
system.l2.ReadSharedReq_mshr_miss_rate::.cpu.data     0.121900                       # mshr miss rate for ReadSharedReq accesses
system.l2.ReadSharedReq_mshr_miss_rate::total     0.121900                       # mshr miss rate for ReadSharedReq accesses
system.l2.ReadSharedReq_avg_mshr_miss_latency::.cpu.data 79941.924779                       # average ReadSharedReq mshr miss latency
system.l2.ReadSharedReq_avg_mshr_miss_latency::total 79941.924779                       # average ReadSharedReq mshr miss latency
system.l2.power_state.pwrStateResidencyTicks::UNDEFINED 163796542000                       # Cumulative time (in ticks) in various power states
system.l2.tags.tagsinuse                 32160.451346                       # Cycle average of tags in use
system.l2.tags.total_refs                     1750873                       # Total number of references to valid blocks.
system.l2.tags.sampled_refs                    202104                       # Sample count of references to valid blocks.
system.l2.tags.avg_refs                      8.663228                       # Average number of references to valid blocks.
system.l2.tags.warmup_cycle                     87000                       # Cycle when the warmup percentage was hit.
system.l2.tags.occ_blocks::.writebacks      76.567410                       # Average occupied blocks per requestor
system.l2.tags.occ_blocks::.cpu.inst        92.063036                       # Average occupied blocks per requestor
system.l2.tags.occ_blocks::.cpu.data     31991.820901                       # Average occupied blocks per requestor
system.l2.tags.occ_percent::.writebacks      0.002337                       # Average percentage of cache occupancy
system.l2.tags.occ_percent::.cpu.inst        0.002810                       # Average percentage of cache occupancy
system.l2.tags.occ_percent::.cpu.data        0.976313                       # Average percentage of cache occupancy
system.l2.tags.occ_percent::total            0.981459                       # Average percentage of cache occupancy
system.l2.tags.occ_task_id_blocks::1024         32768                       # Occupied blocks per task id
system.l2.tags.age_task_id_blocks_1024::1           19                       # Occupied blocks per task id
system.l2.tags.age_task_id_blocks_1024::2          613                       # Occupied blocks per task id
system.l2.tags.age_task_id_blocks_1024::3         8345                       # Occupied blocks per task id
system.l2.tags.age_task_id_blocks_1024::4        23791                       # Occupied blocks per task id
system.l2.tags.occ_task_id_percent::1024            1                       # Percentage of cache occupancy per task id
system.l2.tags.tag_accesses                  14209136                       # Number of tag accesses
system.l2.tags.data_accesses                 14209136                       # Number of data accesses
system.l2.tags.power_state.pwrStateResidencyTicks::UNDEFINED 163796542000                       # Cumulative time (in ticks) in various power states
system.mem_ctrls.avgPriority_.writebacks::samples    111106.00                       # Average QoS priority value for accepted requests
system.mem_ctrls.avgPriority_.cpu.inst::samples       684.00                       # Average QoS priority value for accepted requests
system.mem_ctrls.avgPriority_.cpu.data::samples    201138.00                       # Average QoS priority value for accepted requests
system.mem_ctrls.priorityMinLatency      0.000000018750                       # per QoS priority minimum request to response latency (s)
system.mem_ctrls.priorityMaxLatency      0.012829908500                       # per QoS priority maximum request to response latency (s)
system.mem_ctrls.numReadWriteTurnArounds         6618                       # Number of turnarounds from READ to WRITE
system.mem_ctrls.numWriteReadTurnArounds         6618                       # Number of turnarounds from WRITE to READ
system.mem_ctrls.numStayReadState              547886                       # Number of times bus staying in READ state
system.mem_ctrls.numStayWriteState             104595                       # Number of times bus staying in WRITE state
system.mem_ctrls.readReqs                      201856                       # Number of read requests accepted
system.mem_ctrls.writeReqs                     111106                       # Number of write requests accepted
system.mem_ctrls.readBursts                    201856                       # Number of controller read bursts, including those serviced by the write queue
system.mem_ctrls.writeBursts                   111106                       # Number of controller write bursts, including those merged in the write queue
system.mem_ctrls.servicedByWrQ                     34                       # Number of controller read bursts serviced by the write queue
system.mem_ctrls.mergedWrBursts                     0                       # Number of controller write bursts merged with an existing one
system.mem_ctrls.neitherReadNorWriteReqs            0                       # Number of requests that are neither read nor write
system.mem_ctrls.avgRdQLen                       1.04                       # Average read queue length when enqueuing
system.mem_ctrls.avgWrQLen                      24.60                       # Average write queue length when enqueuing
system.mem_ctrls.numRdRetry                         0                       # Number of times read queue was full causing retry
system.mem_ctrls.numWrRetry                         0                       # Number of times write queue was full causing retry
system.mem_ctrls.readPktSize::0                     0                       # Read request sizes (log2)
system.mem_ctrls.readPktSize::1                     0                       # Read request sizes (log2)
system.mem_ctrls.readPktSize::2                     0                       # Read request sizes (log2)
system.mem_ctrls.readPktSize::3                     0                       # Read request sizes (log2)
system.mem_ctrls.readPktSize::4                     0                       # Read request sizes (log2)
system.mem_ctrls.readPktSize::5                     0                       # Read request sizes (log2)
system.mem_ctrls.readPktSize::6                201856                       # Read request sizes (log2)
system.mem_ctrls.writePktSize::0                    0                       # Write request sizes (log2)
system.mem_ctrls.writePktSize::1                    0                       # Write request sizes (log2)
system.mem_ctrls.writePktSize::2                    0                       # Write request sizes (log2)
system.mem_ctrls.writePktSize::3                    0                       # Write request sizes (log2)
system.mem_ctrls.writePktSize::4                    0                       # Write request sizes (log2)
system.mem_ctrls.writePktSize::5                    0                       # Write request sizes (log2)
system.mem_ctrls.writePktSize::6               111106                       # Write request sizes (log2)
system.mem_ctrls.rdQLenPdf::0                  152928                       # What read queue length does an incoming req see
system.mem_ctrls.rdQLenPdf::1                   48393                       # What read queue length does an incoming req see
system.mem_ctrls.rdQLenPdf::2                     295                       # What read queue length does an incoming req see
system.mem_ctrls.rdQLenPdf::3                     205                       # What read queue length does an incoming req see
system.mem_ctrls.rdQLenPdf::4                       1                       # What read queue length does an incoming req see
system.mem_ctrls.rdQLenPdf::5                       0                       # What read queue length does an incoming req see
system.mem_ctrls.rdQLenPdf::6                       0                       # What read queue length does an incoming req see
system.mem_ctrls.rdQLenPdf::7                       0                       # What read queue length does an incoming req see
system.mem_ctrls.rdQLenPdf::8                       0                       # What read queue length does an incoming req see
system.mem_ctrls.rdQLenPdf::9                       0                       # What read queue length does an incoming req see
system.mem_ctrls.rdQLenPdf::10                      0                       # What read queue length does an incoming req see
system.mem_ctrls.rdQLenPdf::11                      0                       # What read queue length does an incoming req see
system.mem_ctrls.rdQLenPdf::12                      0                       # What read queue length does an incoming req see
[...]
system.mem_ctrls.dram.bw_write::.writebacks     43412296                       # Write bandwidth from this memory (bytes/s)
system.mem_ctrls.dram.bw_write::total        43412296                       # Write bandwidth from this memory (bytes/s)
system.mem_ctrls.dram.bw_total::.writebacks     43412296                       # Total bandwidth to/from this memory (bytes/s)
system.mem_ctrls.dram.bw_total::.cpu.inst       267258                       # Total bandwidth to/from this memory (bytes/s)
system.mem_ctrls.dram.bw_total::.cpu.data     78603662                       # Total bandwidth to/from this memory (bytes/s)
system.mem_ctrls.dram.bw_total::total       122283216                       # Total bandwidth to/from this memory (bytes/s)
system.mem_ctrls.dram.readBursts               201822                       # Number of DRAM read bursts
system.mem_ctrls.dram.writeBursts              111082                       # Number of DRAM write bursts
system.mem_ctrls.dram.perBankRdBursts::0        12926                       # Per bank write bursts
system.mem_ctrls.dram.perBankRdBursts::1        12870                       # Per bank write bursts
system.mem_ctrls.dram.perBankRdBursts::2        12781                       # Per bank write bursts
system.mem_ctrls.dram.perBankRdBursts::3        12538                       # Per bank write bursts
system.mem_ctrls.dram.perBankRdBursts::4        12600                       # Per bank write bursts
system.mem_ctrls.dram.perBankRdBursts::5        12355                       # Per bank write bursts
system.mem_ctrls.dram.perBankRdBursts::6        12584                       # Per bank write bursts
system.mem_ctrls.dram.perBankRdBursts::7        12369                       # Per bank write bursts
system.mem_ctrls.dram.perBankRdBursts::8        12463                       # Per bank write bursts
system.mem_ctrls.dram.perBankRdBursts::9        12130                       # Per bank write bursts
system.mem_ctrls.dram.perBankRdBursts::10        12590                       # Per bank write bursts
system.mem_ctrls.dram.perBankRdBursts::11        12635                       # Per bank write bursts
system.mem_ctrls.dram.perBankRdBursts::12        12781                       # Per bank write bursts
system.mem_ctrls.dram.perBankRdBursts::13        12737                       # Per bank write bursts
system.mem_ctrls.dram.perBankRdBursts::14        12790                       # Per bank write bursts
system.mem_ctrls.dram.perBankRdBursts::15        12673                       # Per bank write bursts
system.mem_ctrls.dram.perBankWrBursts::0         7080                       # Per bank write bursts
system.mem_ctrls.dram.perBankWrBursts::1         7146                       # Per bank write bursts
system.mem_ctrls.dram.perBankWrBursts::2         7068                       # Per bank write bursts
system.mem_ctrls.dram.perBankWrBursts::3         6950                       # Per bank write bursts
system.mem_ctrls.dram.perBankWrBursts::4         7019                       # Per bank write bursts
system.mem_ctrls.dram.perBankWrBursts::5         6935                       # Per bank write bursts
system.mem_ctrls.dram.perBankWrBursts::6         7116                       # Per bank write bursts
system.mem_ctrls.dram.perBankWrBursts::7         6841                       # Per bank write bursts
system.mem_ctrls.dram.perBankWrBursts::8         6788                       # Per bank write bursts
system.mem_ctrls.dram.perBankWrBursts::9         6483                       # Per bank write bursts
system.mem_ctrls.dram.perBankWrBursts::10         6880                       # Per bank write bursts
system.mem_ctrls.dram.perBankWrBursts::11         6910                       # Per bank write bursts
system.mem_ctrls.dram.perBankWrBursts::12         7004                       # Per bank write bursts
system.mem_ctrls.dram.perBankWrBursts::13         6935                       # Per bank write bursts
system.mem_ctrls.dram.perBankWrBursts::14         7003                       # Per bank write bursts
system.mem_ctrls.dram.perBankWrBursts::15         6924                       # Per bank write bursts
system.mem_ctrls.dram.totQLat              2808484250                       # Total ticks spent queuing
system.mem_ctrls.dram.totBusLat            1009110000                       # Total ticks spent in databus transfers
system.mem_ctrls.dram.totMemAccLat         6592646750                       # Total ticks spent from burst creation until serviced by the DRAM
system.mem_ctrls.dram.avgQLat                13915.65                       # Average queueing delay per DRAM burst
system.mem_ctrls.dram.avgBusLat               5000.00                       # Average bus latency per DRAM burst
system.mem_ctrls.dram.avgMemAccLat           32665.65                       # Average memory access latency per DRAM burst
system.mem_ctrls.dram.readRowHits              132199                       # Number of row buffer hits during reads
system.mem_ctrls.dram.writeRowHits              69887                       # Number of row buffer hits during writes
system.mem_ctrls.dram.readRowHitRate            65.50                       # Row buffer hit rate for reads
system.mem_ctrls.dram.writeRowHitRate           62.91                       # Row buffer hit rate for writes
system.mem_ctrls.dram.bytesPerActivate::samples       110818                       # Bytes accessed per row activation
system.mem_ctrls.dram.bytesPerActivate::mean   180.709415                       # Bytes accessed per row activation
system.mem_ctrls.dram.bytesPerActivate::gmean   107.298289                       # Bytes accessed per row activation
system.mem_ctrls.dram.bytesPerActivate::stdev   245.159624                       # Bytes accessed per row activation
system.mem_ctrls.dram.bytesPerActivate::0-127        76363     68.91%     68.91% # Bytes accessed per row activation
system.mem_ctrls.dram.bytesPerActivate::128-255        12003     10.83%     79.74% # Bytes accessed per row activation
system.mem_ctrls.dram.bytesPerActivate::256-383         5333      4.81%     84.55% # Bytes accessed per row activation
system.mem_ctrls.dram.bytesPerActivate::384-511         1336      1.21%     85.76% # Bytes accessed per row activation
system.mem_ctrls.dram.bytesPerActivate::512-639         8737      7.88%     93.64% # Bytes accessed per row activation
system.mem_ctrls.dram.bytesPerActivate::640-767          705      0.64%     94.28% # Bytes accessed per row activation
system.mem_ctrls.dram.bytesPerActivate::768-895          436      0.39%     94.67% # Bytes accessed per row activation
system.mem_ctrls.dram.bytesPerActivate::896-1023          450      0.41%     95.08% # Bytes accessed per row activation
system.mem_ctrls.dram.bytesPerActivate::1024-1151         5455      4.92%    100.00% # Bytes accessed per row activation
system.mem_ctrls.dram.bytesPerActivate::total       110818                       # Bytes accessed per row activation
system.mem_ctrls.dram.bytesRead              12916608                       # Total number of bytes read from DRAM
system.mem_ctrls.dram.bytesWritten            7109248                       # Total number of bytes written to DRAM
system.mem_ctrls.dram.avgRdBW               78.857635                       # Average DRAM read bandwidth in MiBytes/s
system.mem_ctrls.dram.avgWrBW               43.402919                       # Average DRAM write bandwidth in MiBytes/s
system.mem_ctrls.dram.peakBW                 12800.00                       # Theoretical peak bandwidth in MiByte/s
system.mem_ctrls.dram.busUtil                    0.96                       # Data bus utilization in percentage
system.mem_ctrls.dram.busUtilRead                0.62                       # Data bus utilization in percentage for reads
system.mem_ctrls.dram.busUtilWrite               0.34                       # Data bus utilization in percentage for writes
system.mem_ctrls.dram.pageHitRate               64.58                       # Row buffer hit rate, read and write combined
system.mem_ctrls.dram.power_state.pwrStateResidencyTicks::UNDEFINED 163796542000                       # Cumulative time (in ticks) in various power states
system.mem_ctrls.dram.rank0.actEnergy       398312040                       # Energy for activate commands per rank (pJ)
system.mem_ctrls.dram.rank0.preEnergy       211707870                       # Energy for precharge commands per rank (pJ)
system.mem_ctrls.dram.rank0.readEnergy      721304220                       # Energy for read commands per rank (pJ)
system.mem_ctrls.dram.rank0.writeEnergy     293129100                       # Energy for write commands per rank (pJ)
system.mem_ctrls.dram.rank0.refreshEnergy 12929567040.000002                       # Energy for refresh commands per rank (pJ)
system.mem_ctrls.dram.rank0.actBackEnergy  33780145410                       # Energy for active background per rank (pJ)
system.mem_ctrls.dram.rank0.preBackEnergy  34451434080                       # Energy for precharge background per rank (pJ)
system.mem_ctrls.dram.rank0.actPowerDownEnergy            0                       # Energy for active power-down per rank (pJ)
system.mem_ctrls.dram.rank0.prePowerDownEnergy            0                       # Energy for precharge power-down per rank (pJ)
system.mem_ctrls.dram.rank0.selfRefreshEnergy            0                       # Energy for self refresh per rank (pJ)
system.mem_ctrls.dram.rank0.totalEnergy   82785599760                       # Total energy per rank (pJ)
system.mem_ctrls.dram.rank0.averagePower   505.417262                       # Core power per rank (mW)
system.mem_ctrls.dram.rank0.totalIdleTime            0                       # Total Idle time Per DRAM Rank
system.mem_ctrls.dram.rank0.pwrStateTime::IDLE  89210798250                       # Time in different power states
system.mem_ctrls.dram.rank0.pwrStateTime::REF   5469360000                       # Time in different power states
system.mem_ctrls.dram.rank0.pwrStateTime::SREF            0                       # Time in different power states
system.mem_ctrls.dram.rank0.pwrStateTime::PRE_PDN            0                       # Time in different power states
system.mem_ctrls.dram.rank0.pwrStateTime::ACT  69116383750                       # Time in different power states
system.mem_ctrls.dram.rank0.pwrStateTime::ACT_PDN            0                       # Time in different power states
system.mem_ctrls.dram.rank1.actEnergy       392928480                       # Energy for activate commands per rank (pJ)
system.mem_ctrls.dram.rank1.preEnergy       208846440                       # Energy for precharge commands per rank (pJ)
system.mem_ctrls.dram.rank1.readEnergy      719704860                       # Energy for read commands per rank (pJ)
system.mem_ctrls.dram.rank1.writeEnergy     286718940                       # Energy for write commands per rank (pJ)
system.mem_ctrls.dram.rank1.refreshEnergy 12929567040.000002                       # Energy for refresh commands per rank (pJ)
system.mem_ctrls.dram.rank1.actBackEnergy  33379251870                       # Energy for active background per rank (pJ)
system.mem_ctrls.dram.rank1.preBackEnergy  34789028640                       # Energy for precharge background per rank (pJ)
system.mem_ctrls.dram.rank1.actPowerDownEnergy            0                       # Energy for active power-down per rank (pJ)
system.mem_ctrls.dram.rank1.prePowerDownEnergy            0                       # Energy for precharge power-down per rank (pJ)
system.mem_ctrls.dram.rank1.selfRefreshEnergy            0                       # Energy for self refresh per rank (pJ)
system.mem_ctrls.dram.rank1.totalEnergy   82706046270                       # Total energy per rank (pJ)
system.mem_ctrls.dram.rank1.averagePower   504.931577                       # Core power per rank (mW)
system.mem_ctrls.dram.rank1.totalIdleTime            0                       # Total Idle time Per DRAM Rank
system.mem_ctrls.dram.rank1.pwrStateTime::IDLE  90093500500                       # Time in different power states
system.mem_ctrls.dram.rank1.pwrStateTime::REF   5469360000                       # Time in different power states
system.mem_ctrls.dram.rank1.pwrStateTime::SREF            0                       # Time in different power states
system.mem_ctrls.dram.rank1.pwrStateTime::PRE_PDN            0                       # Time in different power states
system.mem_ctrls.dram.rank1.pwrStateTime::ACT  68233681500                       # Time in different power states
system.mem_ctrls.dram.rank1.pwrStateTime::ACT_PDN            0                       # Time in different power states
system.mem_ctrls.power_state.pwrStateResidencyTicks::UNDEFINED 163796542000                       # Cumulative time (in ticks) in various power states
system.membus.trans_dist::ReadResp              65772                       # Transaction distribution
system.membus.trans_dist::WritebackDirty       111106                       # Transaction distribution
system.membus.trans_dist::CleanEvict            57828                       # Transaction distribution
system.membus.trans_dist::ReadExReq            136084                       # Transaction distribution
system.membus.trans_dist::ReadExResp           136084                       # Transaction distribution
system.membus.trans_dist::ReadSharedReq         65772                       # Transaction distribution
system.membus.pkt_count_system.l2.mem_side_port::system.mem_ctrls.port       572646                       # Packet count per connected requestor and responder (bytes)
system.membus.pkt_count::total                 572646                       # Packet count per connected requestor and responder (bytes)
system.membus.pkt_size_system.l2.mem_side_port::system.mem_ctrls.port     20029568                       # Cumulative packet size per connected requestor and responder (bytes)
system.membus.pkt_size::total                20029568                       # Cumulative packet size per connected requestor and responder (bytes)
system.membus.snoops                                0                       # Total snoops (count)
system.membus.snoopTraffic                          0                       # Total snoop traffic (bytes)
system.membus.snoop_fanout::samples            201856                       # Request fanout histogram
system.membus.snoop_fanout::mean                    0                       # Request fanout histogram
system.membus.snoop_fanout::stdev                   0                       # Request fanout histogram
system.membus.snoop_fanout::underflows              0      0.00%      0.00% # Request fanout histogram
system.membus.snoop_fanout::0                  201856    100.00%    100.00% # Request fanout histogram
system.membus.snoop_fanout::1                       0      0.00%    100.00% # Request fanout histogram
system.membus.snoop_fanout::overflows               0      0.00%    100.00% # Request fanout histogram
system.membus.snoop_fanout::min_value               0                       # Request fanout histogram
system.membus.snoop_fanout::max_value               0                       # Request fanout histogram
system.membus.snoop_fanout::total              201856                       # Request fanout histogram
system.membus.power_state.pwrStateResidencyTicks::UNDEFINED 163796542000                       # Cumulative time (in ticks) in various power states
system.membus.reqLayer0.occupancy           815214000                       # Layer occupancy (ticks)
system.membus.reqLayer0.utilization               0.5                       # Layer utilization (%)
system.membus.respLayer1.occupancy         1090957500                       # Layer occupancy (ticks)
system.membus.respLayer1.utilization              0.7                       # Layer utilization (%)
system.tol2bus.trans_dist::ReadResp            534774                       # Transaction distribution
system.tol2bus.trans_dist::WritebackDirty       907101                       # Transaction distribution
system.tol2bus.trans_dist::WritebackClean          570                       # Transaction distribution
system.tol2bus.trans_dist::CleanEvict          136911                       # Transaction distribution
system.tol2bus.trans_dist::ReadExReq           341240                       # Transaction distribution
system.tol2bus.trans_dist::ReadExResp          341240                       # Transaction distribution
system.tol2bus.trans_dist::ReadCleanReq           826                       # Transaction distribution
system.tol2bus.trans_dist::ReadSharedReq       533948                       # Transaction distribution
system.tol2bus.pkt_count_system.cpu.icache.mem_side_port::system.l2.cpu_side_port         2222                       # Packet count per connected requestor and responder (bytes)
system.tol2bus.pkt_count_system.cpu.dcache.mem_side_port::system.l2.cpu_side_port      2625052                       # Packet count per connected requestor and responder (bytes)
system.tol2bus.pkt_count::total               2627274                       # Packet count per connected requestor and responder (bytes)
system.tol2bus.pkt_size_system.cpu.icache.mem_side_port::system.l2.cpu_side_port        89344                       # Cumulative packet size per connected requestor and responder (bytes)
system.tol2bus.pkt_size_system.cpu.dcache.mem_side_port::system.l2.cpu_side_port    106955712                       # Cumulative packet size per connected requestor and responder (bytes)
system.tol2bus.pkt_size::total              107045056                       # Cumulative packet size per connected requestor and responder (bytes)
system.tol2bus.snoops                          169336                       # Total snoops (count)
system.tol2bus.snoopTraffic                   7110784                       # Total snoop traffic (bytes)
system.tol2bus.snoop_fanout::samples          1045350                       # Request fanout histogram
system.tol2bus.snoop_fanout::mean            0.000750                       # Request fanout histogram
system.tol2bus.snoop_fanout::stdev           0.027376                       # Request fanout histogram
system.tol2bus.snoop_fanout::underflows             0      0.00%      0.00% # Request fanout histogram
system.tol2bus.snoop_fanout::0                1044566     99.93%     99.93% # Request fanout histogram
system.tol2bus.snoop_fanout::1                    784      0.07%    100.00% # Request fanout histogram
system.tol2bus.snoop_fanout::2                      0      0.00%    100.00% # Request fanout histogram
system.tol2bus.snoop_fanout::overflows              0      0.00%    100.00% # Request fanout histogram
system.tol2bus.snoop_fanout::min_value              0                       # Request fanout histogram
system.tol2bus.snoop_fanout::max_value              1                       # Request fanout histogram
system.tol2bus.snoop_fanout::total            1045350                       # Request fanout histogram
system.tol2bus.power_state.pwrStateResidencyTicks::UNDEFINED 163796542000                       # Cumulative time (in ticks) in various power states
system.tol2bus.reqLayer0.occupancy         3344390000                       # Layer occupancy (ticks)
system.tol2bus.reqLayer0.utilization              2.0                       # Layer utilization (%)
system.tol2bus.respLayer0.occupancy           2478000                       # Layer occupancy (ticks)
system.tol2bus.respLayer0.utilization             0.0                       # Layer utilization (%)
system.tol2bus.respLayer1.occupancy        2625569994                       # Layer occupancy (ticks)
system.tol2bus.respLayer1.utilization             1.6                       # Layer utilization (%)
system.voltage_domain.voltage                       1                       # Voltage in Volts

---------- End Simulation Statistics   ----------
